54,698,175
  DSViewer          3D                             0

 65 70  0  0  0  0  0  0  0  0999 V2000
  -10.2950    3.8010    0.5160 F   0  0
   -9.7850    5.9790    0.4320 F   0  0
   -9.7770    4.9020    2.3950 F   0  0
    3.1170   -5.5550   -0.8550 O   0  0
    3.4550   -1.9550    1.2340 O   0  0
    2.6580   -4.3130   -2.6540 O   0  0
   -3.8300    2.2110   -0.3830 O   0  0
    3.0570   -3.1150   -0.7050 C   0  0
    2.8440   -1.7990   -1.4140 C   0  0  2  0  0  0
    3.9860   -0.8500   -1.2380 C   0  0
    3.3570   -3.1310    0.6150 C   0  0
    3.5510   -4.4690    1.2460 C   0  0
    2.9300   -4.3770   -1.4770 C   0  0
    3.7700    0.5430   -0.9840 C   0  0
    1.3090    0.2230   -1.4940 C   0  0  2  0  0  0
    1.4790   -1.2170   -0.9920 C   0  0
    3.4180   -5.6450    0.4570 C   0  0
    2.4020    1.1150   -0.8770 C   0  0
   -0.0510    0.7480   -1.2010 C   0  0
    5.3200   -1.3300   -1.3420 C   0  0
    3.8650   -4.5700    2.6250 C   0  0
    4.8830    1.4080   -0.8240 C   0  0
    3.6020   -6.9140    1.0530 C   0  0
    6.4180   -0.4590   -1.1820 C   0  0
    6.2010    0.9100   -0.9220 C   0  0
   -1.1880    0.0220   -1.5960 C   0  0
   -0.2010    1.9730   -0.5270 C   0  0
    4.0470   -5.8440    3.2130 C   0  0
    3.9160   -7.0140    2.4280 C   0  0
   -2.6250    1.7440   -0.6430 C   0  0
   -2.4710    0.5200   -1.3160 C   0  0
   -1.4860    2.4690   -0.2500 C   0  0
   -8.0780    4.4450    0.8610 C   0  0
   -9.5120    4.7890    1.0550 C   0  0
   -5.3650    3.7950    0.4920 C   0  0
   -3.9320    3.4510    0.2990 C   0  0
   -7.0760    5.3130    1.3320 C   0  0
   -7.7230    3.2540    0.2050 C   0  0
   -5.7210    4.9860    1.1480 C   0  0
   -6.3670    2.9280    0.0210 C   0  0
    3.6680   -1.9340    2.1780 H   0  0
    2.7890   -2.0100   -2.4820 H   0  0
    1.4200    0.2250   -2.5800 H   0  0
    1.3850   -1.2320    0.0980 H   0  0
    0.6800   -1.8550   -1.3770 H   0  0
    2.1990    1.2790    0.1840 H   0  0
    2.3770    2.0980   -1.3520 H   0  0
    5.5100   -2.3750   -1.5450 H   0  0
    3.9670   -3.6820    3.2310 H   0  0
    4.7290    2.4590   -0.6250 H   0  0
    3.5020   -7.8110    0.4590 H   0  0
    7.4260   -0.8400   -1.2600 H   0  0
    7.0410    1.5780   -0.7990 H   0  0
   -1.0780   -0.9220   -2.1130 H   0  0
    0.6680    2.5370   -0.2210 H   0  0
    4.2870   -5.9220    4.2640 H   0  0
    4.0570   -7.9840    2.8810 H   0  0
   -3.3420   -0.0430   -1.6210 H   0  0
   -1.5980    3.4120    0.2680 H   0  0
   -3.4530    4.2170   -0.3130 H   0  0
   -3.4470    3.3480    1.2700 H   0  0
   -7.3440    6.2290    1.8360 H   0  0
   -8.4860    2.5820   -0.1600 H   0  0
   -4.9570    5.6580    1.5140 H   0  0
   -6.1000    2.0120   -0.4820 H   0  0
  1 34  1  0  0  0
  2 34  1  0  0  0
  3 34  1  0  0  0
  4 13  1  0  0  0
  4 17  1  0  0  0
  5 11  1  0  0  0
  6 13  2  0  0  0
  7 30  1  0  0  0
  7 36  1  0  0  0
  8  9  1  0  0  0
  8 11  2  0  0  0
  8 13  1  0  0  0
  9 10  1  0  0  0
  9 16  1  0  0  0
 10 14  2  0  0  0
 10 20  1  0  0  0
 11 12  1  0  0  0
 12 17  2  0  0  0
 12 21  1  0  0  0
 14 18  1  0  0  0
 14 22  1  0  0  0
 15 16  1  0  0  0
 15 18  1  0  0  0
 15 19  1  0  0  0
 17 23  1  0  0  0
 19 26  2  0  0  0
 19 27  1  0  0  0
 20 24  2  0  0  0
 21 28  2  0  0  0
 22 25  2  0  0  0
 23 29  2  0  0  0
 24 25  1  0  0  0
 26 31  1  0  0  0
 27 32  2  0  0  0
 28 29  1  0  0  0
 30 31  2  0  0  0
 30 32  1  0  0  0
 33 34  1  0  0  0
 33 37  2  0  0  0
 33 38  1  0  0  0
 35 36  1  0  0  0
 35 39  2  0  0  0
 35 40  1  0  0  0
 37 39  1  0  0  0
 38 40  2  0  0  0
  5 41  1  0  0  0
  9 42  1  0  0  0
 15 43  1  0  0  0
 16 44  1  0  0  0
 16 45  1  0  0  0
 18 46  1  0  0  0
 18 47  1  0  0  0
 20 48  1  0  0  0
 21 49  1  0  0  0
 22 50  1  0  0  0
 23 51  1  0  0  0
 24 52  1  0  0  0
 25 53  1  0  0  0
 26 54  1  0  0  0
 27 55  1  0  0  0
 28 56  1  0  0  0
 29 57  1  0  0  0
 31 58  1  0  0  0
 32 59  1  0  0  0
 36 60  1  0  0  0
 36 61  1  0  0  0
 37 62  1  0  0  0
 38 63  1  0  0  0
 39 64  1  0  0  0
 40 65  1  0  0  0
M  END
> <OBJECTID>
9223372036858118155

> <ActiveAidCount>
0

> <AtomChiralCount>
2

> <AtomChiralDefCount>
0

> <AtomChiralUndefCount>
2

> <BondChiralCount>
0

> <BondChiralDefCount>
0

> <BondChiralUndefCount>
0

> <CID>
54698175

> <CanonicalSmiles>
C1C(CC2=CC=CC=C2C1C3=C(C4=CC=CC=C4OC3=O)O)C5=CC=C(C=C5)OCC6=CC=C(C=C6)C(F)(F)F

> <Clean Energy>
37.1617

> <Complexity>
915

> <CovalentUnitCount>
1

> <CreateDate>
2011/12/26 00:00

> <HeavyAtomCount>
40

> <HydrogenBondAcceptorCount>
7

> <HydrogenBondDonorCount>
1

> <IUPACName>
4-hydroxy-3-[3-[4-[[4-(trifluoromethyl)phenyl]methoxy]phenyl]-1,2,3,4-tetrahydronaphthalen-1-yl]chromen-2-one

> <InChI>
InChI=1S/C33H25F3O4/c34-33(35,36)24-13-9-20(10-14-24)19-39-25-15-11-21(12-16-25)23-17-22-5-1-2-6-26(22)28(18-23)30-31(37)27-7-3-4-8-29(27)40-32(30)38/h1-16,23,28,37H,17-19H2

> <InChIKey>
KKBGNYHHEIAGOH-UHFFFAOYSA-N

> <IsomericSmiles>
C1C(CC2=CC=CC=C2C1C3=C(C4=CC=CC=C4OC3=O)O)C5=CC=C(C=C5)OCC6=CC=C(C=C6)C(F)(F)F

> <IsotopeAtomCount>
0

> <MeSHHeading>
flocoumafen

> <MeSHTerm>
flocoumafen

> <MolecularFormula>
C33H25F3O4

> <MolecularWeight>
542.5

> <RotatableBondCount>
5

> <Smiles>
FC(c1ccc(cc1)COc(ccc2C(Cc(cccc3)c34)CC4C(C5=O)=C(c6c(cccc6)O5)O)cc2)(F)F

> <SourceCategory>
Legacy Depositors
Chemical Vendors
Research and Development
Curation Efforts
Governmental Organizations
Subscription Services
Journal Publishers

> <Synonym>
Flocoumafen
90035-08-8
Flocoumafene
Storm
Stratgem
Flocoumafen [BSI:ISO]
Flocoumafene [ISO-French]
HSDB 6643
WL 108366
4-Hydroxy-3-(1,2,3,4-tetrahydro-3-(4-(4-trifluoromethylbenzyloxy)phenyl)-1-naphthyl)coumarin
2-hydroxy-3-[3-(4-{[4-(trifluoromethyl)benzyl]oxy}phenyl)-1,2,3,4-tetrahydronaphthalen-1-yl]-4h-chromen-4-one
2H-1-Benzopyran-2-one, 4-hydroxy-3-(1,2,3,4-tetrahydro-3-(4-((4-(trifluoromethyl)phenyl)methoxy)phenyl)-1-naphthalenyl)-
2H-1-Benzopyran-2-one, 4-hydroxy-3-[1,2,3,4-tetrahydro-3-[4-[[4-(trifluoromethyl)phenyl]methoxy]phenyl]-1-naphthalenyl]-
4-Hydroxy-3-[1,2,3,4-tetrahydro-3-[4-[[4-(trifluoromethyl)phenyl]methoxy]phenyl]-1-naphthalenyl]-2H-1-benzopyran-2-one
C33H25F3O4
104563-60-2
104563-61-3
4-hydroxy-3-[3-[4-[[4-(trifluoromethyl)phenyl]methoxy]phenyl]-1,2,3,4-tetrahydronaphthalen-1-yl]chromen-2-one
Flocoumafen (JAN)
ACMC-20cg8v
ACMC-20cg8w
AC1Q4JPA
EC 421-960-0
AC1L3MQ1
SCHEMBL53492
SCHEMBL53493
DTXSID1058212
CHEBI:81894
CTK8D5489
KKBGNYHHEIAGOH-UHFFFAOYSA-N
2H-1-Benzopyran-2-one,4-hydroxy-3-[1,2,3,4-tetrahydro-3-[4-[[4-(trifluoromethyl)phenyl]methoxy]phenyl]-1-naphthalenyl]-,cis- (9CI)
2H-1-Benzopyran-2-one,4-hydroxy-3-[1,2,3,4-tetrahydro-3-[4-[[4-(trifluoromethyl)phenyl]methoxy]phenyl]-1-naphthalenyl]-,trans- (9CI)
MFCD01662724
95694-10-3
AN-35137
Flocoumafen 10 microg/mL in Acetonitrile
LS-39733
FT-0630970
Y0317
C18696
D07134
Flocoumafen, PESTANAL(R), analytical standard
035F088
2-hydroxy-3-[3-[4-[[4-(trifluoromethyl)phenyl]methoxy]phenyl]tetralin-1-yl]chromen-4-one
1-(4-hydroxycoumarin-3-yl)-3-[4-(4-trifluoromethylbenzyloxy)phenyl]-1,2,3,4-tetrahydronaphthalene
2-hydroxy-3-[3-[4-[[4-(trifluoromethyl)phenyl]methoxy]phenyl]-1,2,3,4-tetrahydronaphthalen-1-yl]chromen-4-one
4-hydroxy-3-(3-(4-(4-(trifluoromethyl)benzyloxy)phenyl)-1,2,3,4-tetrahydronaphthalen-1-yl)-2H-chromen-2-one
A mixture of: cis-4-Hydroxy-3-(1,2,3,4-tetrahydro-3-(4-(4-trifluoromethylbenzyloxy)phenyl)-1-naphthyl)coumarin; trans-4-Hydroxy-3-(1,2,3,4-tetrahydro-3-(4-(4-trifluoromethylbenzyloxy)phenyl)-1-naphthy
l)coumarin

> <TPSA>
55.8

> <TotalAidCount>
0

> <TotalFormalCharge>
0

> <XLogP>
7.7

> <database>
PubChem Compound

> <matchingCount>
176

> <primaryID>
54698175

> <queryTranslation>
7628[CompoundID] OR 244[CompoundID] OR 25059[CompoundID] OR 7618[CompoundID] OR 7641[CompoundID] OR 5053[CompoundID] OR 637511[CompoundID] OR 7714[CompoundID] OR 7762[CompoundID] OR 25429[CompoundID]
OR 8842[CompoundID] OR 7794[CompoundID] OR 637566[CompoundID] OR 7843[CompoundID] OR 174[CompoundID] OR 7870[CompoundID] OR 86102[CompoundID] OR 7888[CompoundID] OR 7896[CompoundID] OR 1140[CompoundID
] OR 8042[CompoundID] OR 8058[CompoundID] OR 8078[CompoundID] OR 8087[CompoundID] OR 8117[CompoundID] OR 8133[CompoundID] OR 115224[CompoundID] OR 8175[CompoundID] OR 8194[CompoundID] OR 445639[Compou
ndID] OR 4944[CompoundID] OR 8294[CompoundID] OR 93541[CompoundID] OR 8360[CompoundID] OR 8363[CompoundID] OR 656612[CompoundID] OR 125098[CompoundID] OR 3352[CompoundID] OR 3303913[CompoundID] OR 648
05[CompoundID] OR 31200[CompoundID] OR 1712058[CompoundID] OR 31236[CompoundID] OR 31239[CompoundID] OR 31265[CompoundID] OR 31266[CompoundID] OR 31276[CompoundID] OR 6950273[CompoundID] OR 518659[Com
poundID] OR 14896[CompoundID] OR 14798[CompoundID] OR 14829[CompoundID] OR 14830[CompoundID] OR 8635[CompoundID] OR 23266[CompoundID] OR 4284[CompoundID] OR 8693[CompoundID] OR 22311[CompoundID] OR 87
59[CompoundID] OR 8785[CompoundID] OR 2723810[CompoundID] OR 8857[CompoundID] OR 3893[CompoundID] OR 9936739[CompoundID] OR 516892[CompoundID] OR 5430[CompoundID] OR 9017[CompoundID] OR 15433[Compound
ID] OR 107720[CompoundID] OR 9552081[CompoundID] OR 164825[CompoundID] OR 10275455[CompoundID] OR 16666[CompoundID] OR 9839306[CompoundID] OR 5282227[CompoundID] OR 23676745[CompoundID] OR 32881[Compo
undID] OR 91581[CompoundID] OR 39800[CompoundID] OR 33344[CompoundID] OR 15962220[CompoundID] OR 33528[CompoundID] OR 5365075[CompoundID] OR 62829[CompoundID] OR 162381[CompoundID] OR 517202[CompoundI
D] OR 6433353[CompoundID] OR 2730[CompoundID] OR 5372405[CompoundID] OR 36081[CompoundID] OR 3120[CompoundID] OR 3017[CompoundID] OR 2969[CompoundID] OR 18827[CompoundID] OR 19518[CompoundID] OR 19658
[CompoundID] OR 38283[CompoundID] OR 2758[CompoundID] OR 10112[CompoundID] OR 10340[CompoundID] OR 712[CompoundID] OR 5794[CompoundID] OR 3347[CompoundID] OR 104150[CompoundID] OR 2912[CompoundID] OR
2450[CompoundID] OR 40326[CompoundID] OR 40585[CompoundID] OR 517055[CompoundID] OR 10913[CompoundID] OR 108242[CompoundID] OR 62097[CompoundID] OR 41679[CompoundID] OR 54680676[CompoundID] OR 62118[C
ompoundID] OR 753[CompoundID] OR 1030[CompoundID] OR 23673837[CompoundID] OR 54678504[CompoundID] OR 11442[CompoundID] OR 11463[CompoundID] OR 22230[CompoundID] OR 440917[CompoundID] OR 6054[CompoundI
D] OR 43234[CompoundID] OR 22629[CompoundID] OR 3039[CompoundID] OR 2735067[CompoundID] OR 6144[CompoundID] OR 702[CompoundID] OR 284[CompoundID] OR 176[CompoundID] OR 91688[CompoundID] OR 22947[Compo
undID] OR 47445[CompoundID] OR 1711973[CompoundID] OR 243[CompoundID] OR 10342051[CompoundID] OR 5281875[CompoundID] OR 3776[CompoundID] OR 6224[CompoundID] OR 104926[CompoundID] OR 8755[CompoundID] O
R 338[CompoundID] OR 123622[CompoundID] OR 23954[CompoundID] OR 6334[CompoundID] OR 2537[CompoundID] OR 24261[CompoundID] OR 23665760[CompoundID] OR 83975[CompoundID] OR 784[CompoundID] OR 24437[Compo
undID] OR 5360315[CompoundID] OR 311[CompoundID] OR 6549[CompoundID] OR 107689[CompoundID] OR 17100[CompoundID] OR 24976875[CompoundID] OR 6654[CompoundID] OR 71245[CompoundID] OR 6442842[CompoundID]
OR 62334[CompoundID] OR 54698175[CompoundID] OR 6328154[CompoundID] OR 24762[CompoundID] OR 440950[CompoundID] OR 7017[CompoundID] OR 5281873[CompoundID] OR 323[CompoundID] OR 5281167[CompoundID] OR 7
175[CompoundID] OR 7292[CompoundID] OR 6335613[CompoundID] OR 7456[CompoundID] OR 7462[CompoundID]

> <resultIndex>
1

> <resultRange>
1-176

> <textQuery>
7628,244,25059,7618,7641,5053,637511,7714,7762,25429,8842,7794,637566,7843,174,7870,86102,7888,7896,1140,8042,8058,8078,8087,8117,8133,115224,8175,8194,445639,4944,8294,93541,8360,8363,656612,125098,3
352,3303913,64805,31200,1712058,31236,31239,31265,31266,31276,6950273,518659,14896,14798,14829,14830,8635,23266,4284,8693,22311,8759,8785,2723810,8857,3893,9936739,516892,5430,9017,15433,107720,955208
1,164825,10275455,16666,9839306,5282227,23676745,32881,91581,39800,33344,15962220,33528,5365075,62829,162381,517202,6433353,2730,5372405,36081,3120,3017,2969,18827,19518,19658,38283,2758,10112,10340,7
12,5794,3347,104150,2912,2450,40326,40585,517055,10913,108242,62097,41679,54680676,62118,753,1030,23673837,54678504,11442,11463,22230,440917,6054,43234,22629,3039,2735067,6144,702,284,176,91688,22947,
47445,1711973,243,10342051,5281875,3776,6224,104926,8755,338,123622,23954,6334,2537,24261,23665760,83975,784,24437,5360315,311,6549,107689,17100,24976875,6654,71245,6442842,62334,54698175,6328154,2476
2,440950,7017,5281873,323,5281167,7175,7292,6335613,7456,7462

$$$$
54,680,676
  SciTegic10191915303D

 58 63  0  0  1  0            999 V2000
    9.2360    4.9140    0.7770 Br  0  0
    7.5100    4.2270    0.4550 C   0  0
    6.4140    4.6930    1.2030 C   0  0
    5.1270    4.1800    0.9630 C   0  0
    4.9320    3.1970   -0.0250 C   0  0
    6.0290    2.7300   -0.7740 C   0  0
    7.3150    3.2440   -0.5350 C   0  0
    3.6000    2.6640   -0.2740 C   0  0
    2.7420    2.3770    0.8050 C   0  0
    1.4550    1.8630    0.5640 C   0  0
    1.0230    1.6350   -0.7540 C   0  0
    1.8790    1.9220   -1.8320 C   0  0
    3.1660    2.4360   -1.5940 C   0  0
   -0.3420    1.0900   -1.0080 C   0  0  3  0  0  0
   -0.5310   -0.2850   -0.3540 C   0  0
   -1.8980   -0.8970   -0.7250 C   0  0  3  0  0  0
   -3.0330    0.0740   -0.6520 C   0  0
   -2.8070    1.4820   -0.5550 C   0  0
   -3.9140    2.3690   -0.4940 C   0  0
   -5.2360    1.8730   -0.5310 C   0  0
   -5.4630    0.4840   -0.6350 C   0  0
   -4.3710   -0.4080   -0.6970 C   0  0
   -1.4360    2.0550   -0.5100 C   0  0
   -2.1230   -2.1370    0.1090 C   0  0
   -1.9690   -3.3630   -0.4450 C   0  0
   -1.6190   -3.4140   -1.7310 O   0  0
   -2.2050   -4.5390    0.4410 C   0  0
   -2.5760   -4.3320    1.7990 C   0  0
   -2.8030   -5.4450    2.6410 C   0  0
   -2.6580   -6.7600    2.1370 C   0  0
   -2.2890   -6.9630    0.7850 C   0  0
   -2.0610   -5.8560   -0.0630 C   0  0
   -2.7150   -3.0820    2.2850 O   0  0
   -2.5120   -1.9840    1.5330 C   0  0
   -2.6370   -0.8690    1.9860 O   0  0
    6.5450    5.4450    1.9670 H   0  0
    4.2950    4.5510    1.5450 H   0  0
    5.8990    1.9770   -1.5370 H   0  0
    8.1470    2.8750   -1.1190 H   0  0
    3.0590    2.5470    1.8240 H   0  0
    0.8030    1.6460    1.3960 H   0  0
    1.5510    1.7480   -2.8480 H   0  0
    3.8110    2.6500   -2.4340 H   0  0
   -0.4380    0.9750   -2.0880 H   0  0
   -0.4530   -0.1820    0.7300 H   0  0
    0.2660   -0.9690   -0.6580 H   0  0
   -1.8380   -1.2150   -1.7680 H   0  0
   -3.7520    3.4340   -0.4140 H   0  0
   -6.0720    2.5550   -0.4840 H   0  0
   -6.4750    0.1030   -0.6640 H   0  0
   -4.5680   -1.4670   -0.7810 H   0  0
   -1.2380    2.3420    0.5250 H   0  0
   -1.4000    2.9750   -1.0980 H   0  0
   -1.4920   -4.2740   -2.1520 H   0  0
   -3.0860   -5.2950    3.6740 H   0  0
   -2.8320   -7.6080    2.7810 H   0  0
   -2.1800   -7.9670    0.4020 H   0  0
   -1.7790   -6.0220   -1.0940 H   0  0
  1  2  1  0
  2  3  2  0
  2  7  1  0
  3  4  1  0
  4  5  2  0
  5  6  1  0
  5  8  1  0
  6  7  2  0
  8  9  2  0
  8 13  1  0
  9 10  1  0
 10 11  2  0
 11 12  1  0
 11 14  1  0
 12 13  2  0
 14 15  1  0
 14 23  1  0
 15 16  1  0
 16 17  1  0
 16 24  1  0
 17 18  2  0
 17 22  1  0
 18 19  1  0
 18 23  1  0
 19 20  2  0
 20 21  1  0
 21 22  2  0
 24 25  2  0
 24 34  1  0
 25 26  1  0
 25 27  1  0
 27 28  2  0
 27 32  1  0
 28 29  1  0
 28 33  1  0
 29 30  2  0
 30 31  1  0
 31 32  2  0
 33 34  1  0
 34 35  2  0
  3 36  1  0
  4 37  1  0
  6 38  1  0
  7 39  1  0
  9 40  1  0
 10 41  1  0
 12 42  1  0
 13 43  1  0
 14 44  1  0
 15 45  1  0
 15 46  1  0
 16 47  1  0
 19 48  1  0
 20 49  1  0
 21 50  1  0
 22 51  1  0
 23 52  1  0
 23 53  1  0
 26 54  1  0
 29 55  1  0
 30 56  1  0
 31 57  1  0
 32 58  1  0
M  END
> <Name>
54,680,676

> <OBJECTID>
9223372045448052747

> <ActiveAidCount>
1

> <AtomChiralCount>
2

> <AtomChiralDefCount>
0

> <AtomChiralUndefCount>
2

> <BondChiralCount>
0

> <BondChiralDefCount>
0

> <BondChiralUndefCount>
0

> <CID>
54680676

> <CanonicalSmiles>
C1C(CC2=CC=CC=C2C1C3=C(C4=CC=CC=C4OC3=O)O)C5=CC=C(C=C5)C6=CC=C(C=C6)Br

> <Complexity>
791

> <CovalentUnitCount>
1

> <CreateDate>
2011/12/26 00:00

> <HeavyAtomCount>
35

> <HydrogenBondAcceptorCount>
3

> <HydrogenBondDonorCount>
1

> <IUPACName>
3-[3-[4-(4-bromophenyl)phenyl]-1,2,3,4-tetrahydronaphthalen-1-yl]-4-hydroxychromen-2-one

> <InChI>
InChI=1S/C31H23BrO3/c32-24-15-13-20(14-16-24)19-9-11-21(12-10-19)23-17-22-5-1-2-6-25(22)27(18-23)29-30(33)26-7-3-4-8-28(26)35-31(29)34/h1-16,23,27,33H,17-18H2

> <InChIKey>
VEUZZDOCACZPRY-UHFFFAOYSA-N

> <IsomericSmiles>
C1C(CC2=CC=CC=C2C1C3=C(C4=CC=CC=C4OC3=O)O)C5=CC=C(C=C5)C6=CC=C(C=C6)Br

> <IsotopeAtomCount>
0

> <MeSHHeading>
bromfenacoum

> <MeSHTerm>
brodifacoum
bromfenacoum
Ratak
3-(3-(4'-bromobiphenyl-4-yl)-1,2,3,4-tetrahydronaphth-1-yl)-4-hydroxycoumarin
Talon-G
WBA 8119
superwarfarin

> <MolecularFormula>
C31H23BrO3

> <MolecularWeight>
523.4

> <PharmAction>
Toxic Actions
Therapeutic Uses
Agrochemicals
Anticoagulants
Rodenticides
Pharmacologic Actions
Pesticides
Specialty Uses of Chemicals
Hematologic Agents
Chemical Actions and Uses

> <RotatableBondCount>
3

> <Smiles>
Brc1ccc(c2ccc(C3Cc(cccc4)c4C(C5=C(c6c(OC5=O)cccc6)O)C3)cc2)cc1

> <SourceCategory>
Legacy Depositors
Chemical Vendors
Curation Efforts
Governmental Organizations
Subscription Services
Journal Publishers
Research and Development

> <Synonym>
BRODIFACOUM
56073-10-0
Bromfenacoum
Klerat
Talon
Volid
Talon rodenticide
Brodifakum
Super warfarin
WBA 8119
Brodifakum [Czech]
Caswell No. 114AAA
UNII-A25P3CP5S7
PP 581
Brodifacoum [ANSI:BSI:ISO]
HSDB 3916
EINECS 259-980-5
EPA Pesticide Chemical Code 112701
3-(3-(4'-Bromobiphenyl-4-yl)-1,2,3,4-tetrahydronaphth-1-yl)-4-hydroxycoumarin
A25P3CP5S7
BFC
CHEBI:81892
3-(3-(4'-Bromo-1,1'-biphenyl-4-yl)-1,2,3,4-tetrahydro-1-naphthyl)-4-hydroxycoumarin
3-[3-[4-(4-bromophenyl)phenyl]-1,2,3,4-tetrahydronaphthalen-1-yl]-2-hydroxychromen-4-one
2H-1-Benzopyran-2-one, 3-(3-(4'-bromo(1,1'-biphenyl)-4-yl)-1,2,3,4-tetrahydro-1-naphthalenyl)-4-hydroxy-
4-Hydroxy-3-(3-(4'-bromo-4-biphenylyl)-1,2,3,4-tetrahydro-1-naphthyl)coumarin
Coumarin, 3-(3-(4'-bromo-1,1'-biphenyl-4-yl)-1,2,3,4-tetrahydro-1-naphthyl)-4-hydroxy-
2H-1-Benzopyran-2-one, 3-[3-(4'-bromo[1,1'-biphenyl]-4-yl)-1,2,3,4-tetrahydro-1-naphthalenyl]-4-hydroxy-
3-(3-(4'-Bromo(1,1'-biphenyl)-4-yl)-1,2,3,4-tetrahydro-1-naphthalenyl)-4-hydroxy-2H-1-benzopyran-2-one
superwarfarin
3-[3-[4-(4-bromophenyl)phenyl]tetralin-1-yl]-2-hydroxy-chromen-4-one
Talon-G
3-(3-(4'-Bromo-(1,1'-biphenyl)-4-yl)-1,2,3,4-tetrahydro-1-napthalenyl)-4-hydroxycoumarin
3-[3-(4'-Bromo[1,1'-biphenyl]-4-yl)-1,2,3,4-tetrahydro-1-naphthalenyl]-4-hydroxy-2H-1-benzopyran-2-one
Brodimat
C31H23BrO3
Klerat Block
Brodimax Forte Pasta
AC1L26DS
SCHEMBL435133
CHEMBL233451
SCHEMBL5933635
DTXSID5032529
CTK3E9566
CTK8E6731
VEUZZDOCACZPRY-UHFFFAOYSA-N
MFCD11041194
AKOS015907950
CM10946
AN-40269
CC-25208
LS-55126
S312
ST2401713
TR-019727
FT-0623201
Brodifacoum, PESTANAL(R), analytical standard
C18694
073B100
A830909
C-23066
I14-2662
3-[3-[4-(4-bromophenyl)phenyl]-1,2,3,4-tetrahydronaphthalen-1-yl]-4-hydroxychromen-2-one
3-(3-(4'-bromobiphenyl-4-yl)-1,2,3,4-tetrahydronaphthalen-1-yl)-4-hydroxy-2H-chromen-2-one
3-[3-(4'-Bromo[1,1'-biphenyl]-4-yl)-1,2,3,4-tetrahydro-1-naphthalenyl]-4-hydroxy-2H-chromen-2-one #
3-[3-[4-(4-bromophenyl)phenyl]-1,2,3,4-tetrahydronaphthalen-1-yl]-2-hydroxy-1-benzopyran-4-one
3-[3-[4-(4-bromophenyl)phenyl]-1,2,3,4-tetrahydronaphthalen-1-yl]-2-oxidanyl-chromen-4-one
80449-88-3

> <TPSA>
46.5

> <TotalAidCount>
6

> <TotalFormalCharge>
0

> <XLogP>
7.6

> <database>
PubChem Compound

> <matchingCount>
176

> <primaryID>
54680676

> <queryTranslation>
7628[CompoundID] OR 244[CompoundID] OR 25059[CompoundID] OR 7618[CompoundID] OR 7641[CompoundID] OR 5053[CompoundID] OR 637511[CompoundID] OR 7714[CompoundID] OR 7762[CompoundID] OR 25429[CompoundID]
OR 8842[CompoundID] OR 7794[CompoundID] OR 637566[CompoundID] OR 7843[CompoundID] OR 174[CompoundID] OR 7870[CompoundID] OR 86102[CompoundID] OR 7888[CompoundID] OR 7896[CompoundID] OR 1140[CompoundID
] OR 8042[CompoundID] OR 8058[CompoundID] OR 8078[CompoundID] OR 8087[CompoundID] OR 8117[CompoundID] OR 8133[CompoundID] OR 115224[CompoundID] OR 8175[CompoundID] OR 8194[CompoundID] OR 445639[Compou
ndID] OR 4944[CompoundID] OR 8294[CompoundID] OR 93541[CompoundID] OR 8360[CompoundID] OR 8363[CompoundID] OR 656612[CompoundID] OR 125098[CompoundID] OR 3352[CompoundID] OR 3303913[CompoundID] OR 648
05[CompoundID] OR 31200[CompoundID] OR 1712058[CompoundID] OR 31236[CompoundID] OR 31239[CompoundID] OR 31265[CompoundID] OR 31266[CompoundID] OR 31276[CompoundID] OR 6950273[CompoundID] OR 518659[Com
poundID] OR 14896[CompoundID] OR 14798[CompoundID] OR 14829[CompoundID] OR 14830[CompoundID] OR 8635[CompoundID] OR 23266[CompoundID] OR 4284[CompoundID] OR 8693[CompoundID] OR 22311[CompoundID] OR 87
59[CompoundID] OR 8785[CompoundID] OR 2723810[CompoundID] OR 8857[CompoundID] OR 3893[CompoundID] OR 9936739[CompoundID] OR 516892[CompoundID] OR 5430[CompoundID] OR 9017[CompoundID] OR 15433[Compound
ID] OR 107720[CompoundID] OR 9552081[CompoundID] OR 164825[CompoundID] OR 10275455[CompoundID] OR 16666[CompoundID] OR 9839306[CompoundID] OR 5282227[CompoundID] OR 23676745[CompoundID] OR 32881[Compo
undID] OR 91581[CompoundID] OR 39800[CompoundID] OR 33344[CompoundID] OR 15962220[CompoundID] OR 33528[CompoundID] OR 5365075[CompoundID] OR 62829[CompoundID] OR 162381[CompoundID] OR 517202[CompoundI
D] OR 6433353[CompoundID] OR 2730[CompoundID] OR 5372405[CompoundID] OR 36081[CompoundID] OR 3120[CompoundID] OR 3017[CompoundID] OR 2969[CompoundID] OR 18827[CompoundID] OR 19518[CompoundID] OR 19658
[CompoundID] OR 38283[CompoundID] OR 2758[CompoundID] OR 10112[CompoundID] OR 10340[CompoundID] OR 712[CompoundID] OR 5794[CompoundID] OR 3347[CompoundID] OR 104150[CompoundID] OR 2912[CompoundID] OR
2450[CompoundID] OR 40326[CompoundID] OR 40585[CompoundID] OR 517055[CompoundID] OR 10913[CompoundID] OR 108242[CompoundID] OR 62097[CompoundID] OR 41679[CompoundID] OR 54680676[CompoundID] OR 62118[C
ompoundID] OR 753[CompoundID] OR 1030[CompoundID] OR 23673837[CompoundID] OR 54678504[CompoundID] OR 11442[CompoundID] OR 11463[CompoundID] OR 22230[CompoundID] OR 440917[CompoundID] OR 6054[CompoundI
D] OR 43234[CompoundID] OR 22629[CompoundID] OR 3039[CompoundID] OR 2735067[CompoundID] OR 6144[CompoundID] OR 702[CompoundID] OR 284[CompoundID] OR 176[CompoundID] OR 91688[CompoundID] OR 22947[Compo
undID] OR 47445[CompoundID] OR 1711973[CompoundID] OR 243[CompoundID] OR 10342051[CompoundID] OR 5281875[CompoundID] OR 3776[CompoundID] OR 6224[CompoundID] OR 104926[CompoundID] OR 8755[CompoundID] O
R 338[CompoundID] OR 123622[CompoundID] OR 23954[CompoundID] OR 6334[CompoundID] OR 2537[CompoundID] OR 24261[CompoundID] OR 23665760[CompoundID] OR 83975[CompoundID] OR 784[CompoundID] OR 24437[Compo
undID] OR 5360315[CompoundID] OR 311[CompoundID] OR 6549[CompoundID] OR 107689[CompoundID] OR 17100[CompoundID] OR 24976875[CompoundID] OR 6654[CompoundID] OR 71245[CompoundID] OR 6442842[CompoundID]
OR 62334[CompoundID] OR 54698175[CompoundID] OR 6328154[CompoundID] OR 24762[CompoundID] OR 440950[CompoundID] OR 7017[CompoundID] OR 5281873[CompoundID] OR 323[CompoundID] OR 5281167[CompoundID] OR 7
175[CompoundID] OR 7292[CompoundID] OR 6335613[CompoundID] OR 7456[CompoundID] OR 7462[CompoundID]

> <resultIndex>
2

> <resultRange>
1-176

> <textQuery>
7628,244,25059,7618,7641,5053,637511,7714,7762,25429,8842,7794,637566,7843,174,7870,86102,7888,7896,1140,8042,8058,8078,8087,8117,8133,115224,8175,8194,445639,4944,8294,93541,8360,8363,656612,125098,3
352,3303913,64805,31200,1712058,31236,31239,31265,31266,31276,6950273,518659,14896,14798,14829,14830,8635,23266,4284,8693,22311,8759,8785,2723810,8857,3893,9936739,516892,5430,9017,15433,107720,955208
1,164825,10275455,16666,9839306,5282227,23676745,32881,91581,39800,33344,15962220,33528,5365075,62829,162381,517202,6433353,2730,5372405,36081,3120,3017,2969,18827,19518,19658,38283,2758,10112,10340,7
12,5794,3347,104150,2912,2450,40326,40585,517055,10913,108242,62097,41679,54680676,62118,753,1030,23673837,54678504,11442,11463,22230,440917,6054,43234,22629,3039,2735067,6144,702,284,176,91688,22947,
47445,1711973,243,10342051,5281875,3776,6224,104926,8755,338,123622,23954,6334,2537,24261,23665760,83975,784,24437,5360315,311,6549,107689,17100,24976875,6654,71245,6442842,62334,54698175,6328154,2476
2,440950,7017,5281873,323,5281167,7175,7292,6335613,7456,7462

$$$$
54,678,504
  SciTegic10191915303D

 38 41  0  0  1  0            999 V2000
   -0.3990    3.3710    0.5740 O   0  0
    0.2300   -0.7250    1.0900 O   0  0
   -1.1780    2.8610   -1.4550 O   0  0
   -0.4730    1.0490   -0.1860 C   0  0
   -0.8260    0.0780   -1.2890 C   0  0  3  0  0  0
    0.0510    0.5920    0.9770 C   0  0
    0.3770    1.6110    2.0180 C   0  0
   -0.7090    2.5000   -0.4000 C   0  0
    0.1270    2.9860    1.7560 C   0  0
    0.2400   -0.9430   -1.5290 C   0  0
   -0.0740   -2.3240   -1.7320 C   0  0
   -2.2170   -0.5250   -1.0000 C   0  0
    0.9300    1.2110    3.2600 C   0  0
    0.4330    3.9530    2.7420 C   0  0
    1.6010   -0.5350   -1.5760 C   0  0
   -1.4770   -2.8140   -1.7070 C   0  0
   -2.5160   -1.7070   -1.9220 C   0  0
    0.9710   -3.2580   -1.9570 C   0  0
    1.2340    2.1860    4.2400 C   0  0
    0.9860    3.5550    3.9810 C   0  0
    2.6330   -1.4750   -1.7990 C   0  0
    2.3160   -2.8360   -1.9880 C   0  0
   -0.4100   -1.3260    0.6880 H   0  0
   -0.9060    0.6520   -2.2130 H   0  0
   -2.9860    0.2380   -1.1150 H   0  0
   -2.2760   -0.8670    0.0350 H   0  0
    1.1230    0.1680    3.4650 H   0  0
    0.2460    5.0000    2.5510 H   0  0
    1.8650    0.5040   -1.4430 H   0  0
   -1.6520   -3.2910   -0.7420 H   0  0
   -1.6190   -3.5880   -2.4650 H   0  0
   -3.5180   -2.0940   -1.7230 H   0  0
   -2.5100   -1.3790   -2.9610 H   0  0
    0.7400   -4.3030   -2.1060 H   0  0
    1.6560    1.8830    5.1860 H   0  0
    1.2190    4.2950    4.7320 H   0  0
    3.6620   -1.1500   -1.8260 H   0  0
    3.1050   -3.5550   -2.1580 H   0  0
  1  8  1  0
  1  9  1  0
  2  6  1  0
  3  8  2  0
  4  5  1  0
  4  6  2  0
  4  8  1  0
  5 10  1  0
  5 12  1  0
  6  7  1  0
  7  9  2  0
  7 13  1  0
  9 14  1  0
 10 11  2  0
 10 15  1  0
 11 16  1  0
 11 18  1  0
 12 17  1  0
 13 19  2  0
 14 20  2  0
 15 21  2  0
 16 17  1  0
 18 22  2  0
 19 20  1  0
 21 22  1  0
  2 23  1  0
  5 24  1  0
 12 25  1  0
 12 26  1  0
 13 27  1  0
 14 28  1  0
 15 29  1  0
 16 30  1  0
 16 31  1  0
 17 32  1  0
 17 33  1  0
 18 34  1  0
 19 35  1  0
 20 36  1  0
 21 37  1  0
 22 38  1  0
M  END
> <Name>
54,678,504

> <OBJECTID>
9223372049743020043

> <ActiveAidCount>
11

> <AtomChiralCount>
1

> <AtomChiralDefCount>
0

> <AtomChiralUndefCount>
1

> <BondChiralCount>
0

> <BondChiralDefCount>
0

> <BondChiralUndefCount>
0

> <CID>
54678504

> <CanonicalSmiles>
C1CC(C2=CC=CC=C2C1)C3=C(C4=CC=CC=C4OC3=O)O

> <Complexity>
481

> <CovalentUnitCount>
1

> <CreateDate>
2011/12/26 00:00

> <HeavyAtomCount>
22

> <HydrogenBondAcceptorCount>
3

> <HydrogenBondDonorCount>
1

> <IUPACName>
4-hydroxy-3-(1,2,3,4-tetrahydronaphthalen-1-yl)chromen-2-one

> <InChI>
InChI=1S/C19H16O3/c20-18-15-9-3-4-11-16(15)22-19(21)17(18)14-10-5-7-12-6-1-2-8-13(12)14/h1-4,6,8-9,11,14,20H,5,7,10H2

> <InChIKey>
ULSLJYXHZDTLQK-UHFFFAOYSA-N

> <IsomericSmiles>
C1CC(C2=CC=CC=C2C1)C3=C(C4=CC=CC=C4OC3=O)O

> <IsotopeAtomCount>
0

> <MeSHHeading>
coumatetralyl

> <MeSHTerm>
coumateralyl
coumatetralyl

> <MolecularFormula>
C19H16O3

> <MolecularWeight>
292.3

> <RotatableBondCount>
1

> <Smiles>
O1c(cccc2)c2C(=C(C1=O)C3CCCc(cccc4)c34)O

> <SourceCategory>
Legacy Depositors
Chemical Vendors
Curation Efforts
Governmental Organizations
Subscription Services
Journal Publishers
Research and Development

> <Synonym>
COUMATETRALYL
Racumin
Endrocid
Endrocide
Rodentin
5836-29-3
Endox
Raucumin 57
Cumatetralyl
Bayer 25 634
BAY ene 11183 B
Caswell No. 496A
Coumatetralyl [BSI:ISO]
3-(d-Tetralyl)-4-hydroxycoumarin
ENE 11183 B
BAY 25634
Cumatetralyl [German, Dutch]
CCRIS 6923
3-(alpha-Tetral)-4-oxycoumarin
HSDB 1725
4-Hydroxy-3-(1,2,3,4-tetrahydro-1-naphthyl)coumarin
EINECS 227-424-0
3-(alpha-Tetralyl)-4-hydroxycoumarin
EPA Pesticide Chemical Code 496100
BRN 1323631
2H-1-Benzopyran-2-one, 4-hydroxy-3-(1,2,3,4-tetrahydro-1-naphthalenyl)-
4-Hydroxy-3-(1,2,3,4-tetrahydro-1-naphthalenyl)-2H-1-benzopyran-2-one
4-Hydroxy-3-(1,2,3,4-tetrahydro-1-naphthyl)-cumarin
Coumarin, 4-hydroxy-3-(1,2,3,4-tetrahydro-1-naphthyl)-
CHEBI:80742
4-Hydroxy-3-(1,2,3,4-tetrahydro-1-naftyl)-cumarine
4-Idrossi-3-(1,2,3,4-tetraidro-1-naftil)-cumarina
3-(1,2,3,4-Tetrahydro-1-naphtyl)-4-hydroxycoumarine
3-(1,2,3,4-Tetrahydro-1-naphthyl)-4-hydroxycumarin [German]
3-(1,2,3,4-Tetrahydro-1-naphtyl)-4-hydroxycoumarine [French]
4-Hydroxy-3-(1,2,3,4-tetrahydro-1-naftyl)-cumarine [Dutch]
4-Idrossi-3-(1,2,3,4-tetraidro-1-naftil)-cumarina [Italian]
3-(1,2,3,4-Tetrahydro-1-naphthyl)-4-hydroxycoumarin
Coumetralyl
Counmatetralyl
4-hydroxy-3-(1,2,3,4-tetrahydronaphthalen-1-yl)chromen-2-one
Murisan A
Racumin 57
AC1L2JQW
DSSTox_CID_21799
DSSTox_RID_79847
DSSTox_GSID_41799
SCHEMBL137261
3-(1,2,3,4-Tetrahydro-1-naphthyl)-4-hydroxycumarin
SCHEMBL5933927
CHEMBL3184636
DTXSID8041799
ULSLJYXHZDTLQK-UHFFFAOYSA-N
3-(1-Tetralyl)-4-hydroxycoumarin
Tox21_301252
3-(|A-Tetralyl)-4-Hydroxycoumarin
4-Hydroxy-3-(1,2,3,4-tetrahydronaphthalen-1-yl)-2H-chromen-2-one
3-(|A-Tetralinyl)-4-hydroxycoumarin
AKOS015903266
4-Hydroxy-3-(1,2,3,4-tetrahydro-1-naphthalenyl)-2H-1-benzopyran-2-one (8CI)(9CI)
3-(.alpha.-Tetralyl)-4-hydroxycoumarin
NCGC00255682-01
AC-12689
LS-55246
3-(.alpha.-Tetralinyl)-4-hydroxycoumarin
CAS-5836-29-3
TR-020287
FT-0665202
C16806
Coumatetralyl, PESTANAL(R), analytical standard
I14-19226
3-(1,2,3,4-Tetrahydro-1-naphthyl)-4-hydroxycoumarine
2-hydroxy-3-(1,2,3,4-tetrahydronaphthalen-1-yl)chromen-4-one
4-Hydroxy-3-(1,2,3,4-tetrahydro-1-naphthalenyl)-2H-chromen-2-one #
2H-1-Benzopyran-2-one, 4-hydroxy-3-(1,2,3,4-tetrahydro-1-naphthalenyl)- (9CI)
4-Hydroxy-3-(1,2,3,4-tetrahydro-1-naphthalenyl)-2H-1-benzopyran-2-one (8CI)

> <TPSA>
46.5

> <TotalAidCount>
211

> <TotalFormalCharge>
0

> <XLogP>
4.1

> <database>
PubChem Compound

> <matchingCount>
176

> <primaryID>
54678504

> <queryTranslation>
7628[CompoundID] OR 244[CompoundID] OR 25059[CompoundID] OR 7618[CompoundID] OR 7641[CompoundID] OR 5053[CompoundID] OR 637511[CompoundID] OR 7714[CompoundID] OR 7762[CompoundID] OR 25429[CompoundID]
OR 8842[CompoundID] OR 7794[CompoundID] OR 637566[CompoundID] OR 7843[CompoundID] OR 174[CompoundID] OR 7870[CompoundID] OR 86102[CompoundID] OR 7888[CompoundID] OR 7896[CompoundID] OR 1140[CompoundID
] OR 8042[CompoundID] OR 8058[CompoundID] OR 8078[CompoundID] OR 8087[CompoundID] OR 8117[CompoundID] OR 8133[CompoundID] OR 115224[CompoundID] OR 8175[CompoundID] OR 8194[CompoundID] OR 445639[Compou
ndID] OR 4944[CompoundID] OR 8294[CompoundID] OR 93541[CompoundID] OR 8360[CompoundID] OR 8363[CompoundID] OR 656612[CompoundID] OR 125098[CompoundID] OR 3352[CompoundID] OR 3303913[CompoundID] OR 648
05[CompoundID] OR 31200[CompoundID] OR 1712058[CompoundID] OR 31236[CompoundID] OR 31239[CompoundID] OR 31265[CompoundID] OR 31266[CompoundID] OR 31276[CompoundID] OR 6950273[CompoundID] OR 518659[Com
poundID] OR 14896[CompoundID] OR 14798[CompoundID] OR 14829[CompoundID] OR 14830[CompoundID] OR 8635[CompoundID] OR 23266[CompoundID] OR 4284[CompoundID] OR 8693[CompoundID] OR 22311[CompoundID] OR 87
59[CompoundID] OR 8785[CompoundID] OR 2723810[CompoundID] OR 8857[CompoundID] OR 3893[CompoundID] OR 9936739[CompoundID] OR 516892[CompoundID] OR 5430[CompoundID] OR 9017[CompoundID] OR 15433[Compound
ID] OR 107720[CompoundID] OR 9552081[CompoundID] OR 164825[CompoundID] OR 10275455[CompoundID] OR 16666[CompoundID] OR 9839306[CompoundID] OR 5282227[CompoundID] OR 23676745[CompoundID] OR 32881[Compo
undID] OR 91581[CompoundID] OR 39800[CompoundID] OR 33344[CompoundID] OR 15962220[CompoundID] OR 33528[CompoundID] OR 5365075[CompoundID] OR 62829[CompoundID] OR 162381[CompoundID] OR 517202[CompoundI
D] OR 6433353[CompoundID] OR 2730[CompoundID] OR 5372405[CompoundID] OR 36081[CompoundID] OR 3120[CompoundID] OR 3017[CompoundID] OR 2969[CompoundID] OR 18827[CompoundID] OR 19518[CompoundID] OR 19658
[CompoundID] OR 38283[CompoundID] OR 2758[CompoundID] OR 10112[CompoundID] OR 10340[CompoundID] OR 712[CompoundID] OR 5794[CompoundID] OR 3347[CompoundID] OR 104150[CompoundID] OR 2912[CompoundID] OR
2450[CompoundID] OR 40326[CompoundID] OR 40585[CompoundID] OR 517055[CompoundID] OR 10913[CompoundID] OR 108242[CompoundID] OR 62097[CompoundID] OR 41679[CompoundID] OR 54680676[CompoundID] OR 62118[C
ompoundID] OR 753[CompoundID] OR 1030[CompoundID] OR 23673837[CompoundID] OR 54678504[CompoundID] OR 11442[CompoundID] OR 11463[CompoundID] OR 22230[CompoundID] OR 440917[CompoundID] OR 6054[CompoundI
D] OR 43234[CompoundID] OR 22629[CompoundID] OR 3039[CompoundID] OR 2735067[CompoundID] OR 6144[CompoundID] OR 702[CompoundID] OR 284[CompoundID] OR 176[CompoundID] OR 91688[CompoundID] OR 22947[Compo
undID] OR 47445[CompoundID] OR 1711973[CompoundID] OR 243[CompoundID] OR 10342051[CompoundID] OR 5281875[CompoundID] OR 3776[CompoundID] OR 6224[CompoundID] OR 104926[CompoundID] OR 8755[CompoundID] O
R 338[CompoundID] OR 123622[CompoundID] OR 23954[CompoundID] OR 6334[CompoundID] OR 2537[CompoundID] OR 24261[CompoundID] OR 23665760[CompoundID] OR 83975[CompoundID] OR 784[CompoundID] OR 24437[Compo
undID] OR 5360315[CompoundID] OR 311[CompoundID] OR 6549[CompoundID] OR 107689[CompoundID] OR 17100[CompoundID] OR 24976875[CompoundID] OR 6654[CompoundID] OR 71245[CompoundID] OR 6442842[CompoundID]
OR 62334[CompoundID] OR 54698175[CompoundID] OR 6328154[CompoundID] OR 24762[CompoundID] OR 440950[CompoundID] OR 7017[CompoundID] OR 5281873[CompoundID] OR 323[CompoundID] OR 5281167[CompoundID] OR 7
175[CompoundID] OR 7292[CompoundID] OR 6335613[CompoundID] OR 7456[CompoundID] OR 7462[CompoundID]

> <resultIndex>
3

> <resultRange>
1-176

> <textQuery>
7628,244,25059,7618,7641,5053,637511,7714,7762,25429,8842,7794,637566,7843,174,7870,86102,7888,7896,1140,8042,8058,8078,8087,8117,8133,115224,8175,8194,445639,4944,8294,93541,8360,8363,656612,125098,3
352,3303913,64805,31200,1712058,31236,31239,31265,31266,31276,6950273,518659,14896,14798,14829,14830,8635,23266,4284,8693,22311,8759,8785,2723810,8857,3893,9936739,516892,5430,9017,15433,107720,955208
1,164825,10275455,16666,9839306,5282227,23676745,32881,91581,39800,33344,15962220,33528,5365075,62829,162381,517202,6433353,2730,5372405,36081,3120,3017,2969,18827,19518,19658,38283,2758,10112,10340,7
12,5794,3347,104150,2912,2450,40326,40585,517055,10913,108242,62097,41679,54680676,62118,753,1030,23673837,54678504,11442,11463,22230,440917,6054,43234,22629,3039,2735067,6144,702,284,176,91688,22947,
47445,1711973,243,10342051,5281875,3776,6224,104926,8755,338,123622,23954,6334,2537,24261,23665760,83975,784,24437,5360315,311,6549,107689,17100,24976875,6654,71245,6442842,62334,54698175,6328154,2476
2,440950,7017,5281873,323,5281167,7175,7292,6335613,7456,7462

$$$$
24,976,875
  SciTegic10191915303D

 38 37  0  0  0  0            999 V2000
   -3.3570   -2.2700   -2.3810 C   0  0
    3.1270    2.2600    2.7620 C   0  0
   -2.8300   -3.6150   -2.6370 C   0  0
    0.0060    0.5700   -0.1580 C   0  0
    2.2380    1.2660    2.9160 C   0  0
   -1.2520    0.0960   -0.1760 C   0  0
    4.6740    3.2810    1.3580 O   0  0
   -4.2270   -1.7010   -3.2340 C   0  0
   -1.6990   -4.0310   -2.0450 C   0  0
    3.6210    2.6950    1.4510 C   0  0
    1.7270    0.5640    1.6860 C   0  0
   -1.7420   -0.5860   -1.4260 C   0  0
   -2.9410   -1.4980   -1.1580 C   0  0
    0.4980    1.2520    1.0900 C   0  0
    3.6370    2.9630    3.9920 C   0  0
    0.8570    0.3950   -1.3870 C   0  0
   -3.2990   -4.3320   -3.2950 H   0  0
    1.9590    1.0470    3.9360 H   0  0
   -1.9530    0.1620    0.6410 H   0  0
   -4.6150   -2.1290   -4.1460 H   0  0
   -4.5590   -0.7110   -2.9630 H   0  0
   -1.2270   -4.9960   -2.1520 H   0  0
   -1.2270   -3.3110   -1.3940 H   0  0
    3.0390    2.4900    0.5650 H   0  0
    2.4880    0.5800    0.9060 H   0  0
    1.5100   -0.4790    1.9180 H   0  0
   -2.0860    0.1580   -2.1440 H   0  0
   -0.9300   -1.1450   -1.8870 H   0  0
   -3.7520   -0.8420   -0.8400 H   0  0
   -2.7290   -2.1860   -0.3400 H   0  0
    0.8070    2.2720    0.8600 H   0  0
   -0.3070    1.3070    1.8240 H   0  0
    3.3050    2.5060    4.9240 H   0  0
    3.3050    4.0000    3.9920 H   0  0
    4.7270    2.9630    3.9920 H   0  0
    0.2730    0.6190   -2.2770 H   0  0
    1.7420    1.0250   -1.3160 H   0  0
    1.1910   -0.6410   -1.4590 H   0  0
  1  3  1  0
  1  8  2  0
  1 13  1  0
  2  5  2  0
  2 10  1  0
  2 15  1  0
  3  9  2  0
  4  6  2  0
  4 14  1  0
  4 16  1  0
  5 11  1  0
  6 12  1  0
  7 10  2  0
 11 14  1  0
 12 13  1  0
  3 17  1  0
  5 18  1  0
  6 19  1  0
  8 20  1  0
  8 21  1  0
  9 22  1  0
  9 23  1  0
 10 24  1  0
 11 25  1  0
 11 26  1  0
 12 27  1  0
 12 28  1  0
 13 29  1  0
 13 30  1  0
 14 31  1  0
 14 32  1  0
 15 33  1  0
 15 34  1  0
 15 35  1  0
 16 36  1  0
 16 37  1  0
 16 38  1  0
M  END
> <Name>
24,976,875

> <OBJECTID>
9223372054037987339

> <ActiveAidCount>
0

> <AtomChiralCount>
0

> <AtomChiralDefCount>
0

> <AtomChiralUndefCount>
0

> <BondChiralCount>
2

> <BondChiralDefCount>
2

> <BondChiralUndefCount>
0

> <CID>
24976875

> <CanonicalSmiles>
CC(=CCCC(=C)C=C)CCC=C(C)C=O

> <Complexity>
305

> <CovalentUnitCount>
1

> <CreateDate>
2008/10/23 00:00

> <HeavyAtomCount>
16

> <HydrogenBondAcceptorCount>
1

> <HydrogenBondDonorCount>
0

> <IUPACName>
(2Z,6E)-2,6-dimethyl-10-methylidenedodeca-2,6,11-trienal

> <InChI>
InChI=1S/C15H22O/c1-5-13(2)8-6-9-14(3)10-7-11-15(4)12-16/h5,9,11-12H,1-2,6-8,10H2,3-4H3/b14-9+,15-11-

> <InChIKey>
NOPLRNXKHZRXHT-PVMFERMNSA-N

> <IsomericSmiles>
C/C(=C\CCC(=C)C=C)/CC/C=C(/C)\C=O

> <IsotopeAtomCount>
0

> <MolecularFormula>
C15H22O

> <MolecularWeight>
218.33

> <RotatableBondCount>
8

> <Smiles>
C(CC\C=C(/C)\CC\C=C(\C)/C=O)(=C)C=C

> <SourceCategory>
Curation Efforts
NIH Initiatives
Subscription Services
Governmental Organizations
Research and Development

> <Synonym>
UNII-S4Z3G4YKHH
S4Z3G4YKHH
(2Z,6E)-2,6-dimethyl-10-methylidenedodeca-2,6,11-trienal
FEMA No. 3141, 2Z,6E-
8028-48-6
SCHEMBL17627752
2,6,11-Dodecatrienal, 2,6-dimethyl-10-methylene-, (Z,E)-
2,6,11-Dodecatrienal, 2,6-dimethyl-10-methylene-, (2Z,6E)-
199008-40-7
UNII-TJW2V5DYI3 component NOPLRNXKHZRXHT-PVMFERMNSA-N

> <TPSA>
17.1

> <TotalAidCount>
0

> <TotalFormalCharge>
0

> <XLogP>
4.8

> <database>
PubChem Compound

> <matchingCount>
176

> <primaryID>
24976875

> <queryTranslation>
7628[CompoundID] OR 244[CompoundID] OR 25059[CompoundID] OR 7618[CompoundID] OR 7641[CompoundID] OR 5053[CompoundID] OR 637511[CompoundID] OR 7714[CompoundID] OR 7762[CompoundID] OR 25429[CompoundID]
OR 8842[CompoundID] OR 7794[CompoundID] OR 637566[CompoundID] OR 7843[CompoundID] OR 174[CompoundID] OR 7870[CompoundID] OR 86102[CompoundID] OR 7888[CompoundID] OR 7896[CompoundID] OR 1140[CompoundID
] OR 8042[CompoundID] OR 8058[CompoundID] OR 8078[CompoundID] OR 8087[CompoundID] OR 8117[CompoundID] OR 8133[CompoundID] OR 115224[CompoundID] OR 8175[CompoundID] OR 8194[CompoundID] OR 445639[Compou
ndID] OR 4944[CompoundID] OR 8294[CompoundID] OR 93541[CompoundID] OR 8360[CompoundID] OR 8363[CompoundID] OR 656612[CompoundID] OR 125098[CompoundID] OR 3352[CompoundID] OR 3303913[CompoundID] OR 648
05[CompoundID] OR 31200[CompoundID] OR 1712058[CompoundID] OR 31236[CompoundID] OR 31239[CompoundID] OR 31265[CompoundID] OR 31266[CompoundID] OR 31276[CompoundID] OR 6950273[CompoundID] OR 518659[Com
poundID] OR 14896[CompoundID] OR 14798[CompoundID] OR 14829[CompoundID] OR 14830[CompoundID] OR 8635[CompoundID] OR 23266[CompoundID] OR 4284[CompoundID] OR 8693[CompoundID] OR 22311[CompoundID] OR 87
59[CompoundID] OR 8785[CompoundID] OR 2723810[CompoundID] OR 8857[CompoundID] OR 3893[CompoundID] OR 9936739[CompoundID] OR 516892[CompoundID] OR 5430[CompoundID] OR 9017[CompoundID] OR 15433[Compound
ID] OR 107720[CompoundID] OR 9552081[CompoundID] OR 164825[CompoundID] OR 10275455[CompoundID] OR 16666[CompoundID] OR 9839306[CompoundID] OR 5282227[CompoundID] OR 23676745[CompoundID] OR 32881[Compo
undID] OR 91581[CompoundID] OR 39800[CompoundID] OR 33344[CompoundID] OR 15962220[CompoundID] OR 33528[CompoundID] OR 5365075[CompoundID] OR 62829[CompoundID] OR 162381[CompoundID] OR 517202[CompoundI
D] OR 6433353[CompoundID] OR 2730[CompoundID] OR 5372405[CompoundID] OR 36081[CompoundID] OR 3120[CompoundID] OR 3017[CompoundID] OR 2969[CompoundID] OR 18827[CompoundID] OR 19518[CompoundID] OR 19658
[CompoundID] OR 38283[CompoundID] OR 2758[CompoundID] OR 10112[CompoundID] OR 10340[CompoundID] OR 712[CompoundID] OR 5794[CompoundID] OR 3347[CompoundID] OR 104150[CompoundID] OR 2912[CompoundID] OR
2450[CompoundID] OR 40326[CompoundID] OR 40585[CompoundID] OR 517055[CompoundID] OR 10913[CompoundID] OR 108242[CompoundID] OR 62097[CompoundID] OR 41679[CompoundID] OR 54680676[CompoundID] OR 62118[C
ompoundID] OR 753[CompoundID] OR 1030[CompoundID] OR 23673837[CompoundID] OR 54678504[CompoundID] OR 11442[CompoundID] OR 11463[CompoundID] OR 22230[CompoundID] OR 440917[CompoundID] OR 6054[CompoundI
D] OR 43234[CompoundID] OR 22629[CompoundID] OR 3039[CompoundID] OR 2735067[CompoundID] OR 6144[CompoundID] OR 702[CompoundID] OR 284[CompoundID] OR 176[CompoundID] OR 91688[CompoundID] OR 22947[Compo
undID] OR 47445[CompoundID] OR 1711973[CompoundID] OR 243[CompoundID] OR 10342051[CompoundID] OR 5281875[CompoundID] OR 3776[CompoundID] OR 6224[CompoundID] OR 104926[CompoundID] OR 8755[CompoundID] O
R 338[CompoundID] OR 123622[CompoundID] OR 23954[CompoundID] OR 6334[CompoundID] OR 2537[CompoundID] OR 24261[CompoundID] OR 23665760[CompoundID] OR 83975[CompoundID] OR 784[CompoundID] OR 24437[Compo
undID] OR 5360315[CompoundID] OR 311[CompoundID] OR 6549[CompoundID] OR 107689[CompoundID] OR 17100[CompoundID] OR 24976875[CompoundID] OR 6654[CompoundID] OR 71245[CompoundID] OR 6442842[CompoundID]
OR 62334[CompoundID] OR 54698175[CompoundID] OR 6328154[CompoundID] OR 24762[CompoundID] OR 440950[CompoundID] OR 7017[CompoundID] OR 5281873[CompoundID] OR 323[CompoundID] OR 5281167[CompoundID] OR 7
175[CompoundID] OR 7292[CompoundID] OR 6335613[CompoundID] OR 7456[CompoundID] OR 7462[CompoundID]

> <resultIndex>
4

> <resultRange>
1-176

> <textQuery>
7628,244,25059,7618,7641,5053,637511,7714,7762,25429,8842,7794,637566,7843,174,7870,86102,7888,7896,1140,8042,8058,8078,8087,8117,8133,115224,8175,8194,445639,4944,8294,93541,8360,8363,656612,125098,3
352,3303913,64805,31200,1712058,31236,31239,31265,31266,31276,6950273,518659,14896,14798,14829,14830,8635,23266,4284,8693,22311,8759,8785,2723810,8857,3893,9936739,516892,5430,9017,15433,107720,955208
1,164825,10275455,16666,9839306,5282227,23676745,32881,91581,39800,33344,15962220,33528,5365075,62829,162381,517202,6433353,2730,5372405,36081,3120,3017,2969,18827,19518,19658,38283,2758,10112,10340,7
12,5794,3347,104150,2912,2450,40326,40585,517055,10913,108242,62097,41679,54680676,62118,753,1030,23673837,54678504,11442,11463,22230,440917,6054,43234,22629,3039,2735067,6144,702,284,176,91688,22947,
47445,1711973,243,10342051,5281875,3776,6224,104926,8755,338,123622,23954,6334,2537,24261,23665760,83975,784,24437,5360315,311,6549,107689,17100,24976875,6654,71245,6442842,62334,54698175,6328154,2476
2,440950,7017,5281873,323,5281167,7175,7292,6335613,7456,7462

$$$$
23,676,745
  SciTegic10191915303D

 15 14  0  0  0  0            999 V2000
   -2.7420   -1.0490    0.0020 C   0  0
   -1.2380   -1.1060    0.0020 C   0  0
   -0.5550    0.0510    0.0020 C   0  0
    0.9140    0.0510    0.0020 C   0  0
    1.5980    1.2050    0.0020 C   0  0
    3.0660    1.2050    0.0020 C   0  0
    3.6170    0.1050    0.0020 O   0  5
    3.6780    2.2480    0.0020 O   0  0
   -3.1480   -1.9940   -0.3550 H   0  0
   -3.1060   -0.8110    1.0020 H   0  0
   -3.0840   -0.2640   -0.6720 H   0  0
   -0.6350   -2.0000    0.0020 H   0  0
   -1.0180    1.0250    0.0020 H   0  0
    1.5180   -0.8460    0.0020 H   0  0
    1.1350    2.1810    0.0020 H   0  0
  1  2  1  0
  2  3  2  0
  3  4  1  0
  4  5  2  0
  5  6  1  0
  6  7  1  0
  6  8  2  0
  1  9  1  0
  1 10  1  0
  1 11  1  0
  2 12  1  0
  3 13  1  0
  4 14  1  0
  5 15  1  0
M  CHG  1   7  -1
M  END
> <Name>
23,676,745

> <OBJECTID>
9223372058332954635

> <ActiveAidCount>
0

> <AtomChiralCount>
0

> <AtomChiralDefCount>
0

> <AtomChiralUndefCount>
0

> <BondChiralCount>
2

> <BondChiralDefCount>
2

> <BondChiralUndefCount>
0

> <CID>
23676745

> <CanonicalSmiles>
CC=CC=CC(=O)[O-].[K+]

> <Complexity>
127

> <CovalentUnitCount>
2

> <CreateDate>
2008/02/05 00:00

> <HeavyAtomCount>
9

> <HydrogenBondAcceptorCount>
2

> <HydrogenBondDonorCount>
0

> <IUPACName>
potassium;(2E,4E)-hexa-2,4-dienoate

> <InChI>
InChI=1S/C6H8O2.K/c1-2-3-4-5-6(7)8;/h2-5H,1H3,(H,7,8);/q;+1/p-1/b3-2+,5-4+;

> <InChIKey>
CHHHXKFHOYLYRE-STWYSWDKSA-M

> <IsomericSmiles>
C/C=C/C=C/C(=O)[O-].[K+]

> <IsotopeAtomCount>
0

> <MeSHHeading>
Sorbic Acid

> <MeSHTerm>
Acid, Propenylacrylic
Sorbate, Sodium
Hexadienoic Acid
Propenylacrylic Acid
Acid, Hexadienoic
Sodium Sorbate
Sorbic Acid
Sorbate, Potassium
Acid, Sorbic
Potassium Sorbate

> <MolecularFormula>
C6H7KO2

> <MolecularWeight>
150.22

> <PharmAction>
Specialty Uses of Chemicals
Food Preservatives
Food Additives
Food Ingredients
Chemical Actions and Uses

> <RotatableBondCount>
2

> <Smiles>
[K+].C\C=C\C=C\C(=O)[O-]

> <SourceCategory>
Chemical Vendors
Legacy Depositors
Research and Development
Curation Efforts
Governmental Organizations
Subscription Services
Journal Publishers

> <Synonym>
POTASSIUM SORBATE
24634-61-5
Sorbic acid potassium salt
Sorbistat-K
Potassium 2,4-hexadienoate
Sorbistat potassium
Potassium (E,E)-sorbate
potassium (2E,4E)-hexa-2,4-dienoate
BB Powder
Sorbistat-potassium
590-00-1
Caswell No. 701C
Potassium sorbate (E)
Potassium Sorbate [USAN]
UNII-1VPU26JZZ4
Potassium (E,E)-2,4-hexadienoate
Sorbic acid, potassium salt
Potassium (E,E)-hexa-2,4-dienoate
FEMA No. 2921
CCRIS 1894
HSDB 1230
Potassium sorbate [NF]
EINECS 246-376-1
MFCD00016546
2,4-Hexadienoic acid, potassium salt
EPA Pesticide Chemical Code 075902
Potassium 2,4-hexadienoate, (E,E)-
2,4-Hexadienoic acid, potassium salt, (2E,4E)-
1VPU26JZZ4
potassium hexa-2,4-dienoate
AI3-26043
E 202
CHEBI:77868
2,4-Hexadienoic acid, potassium salt, (E,E)-
Sorbic acid, potassium salt, (E,E)-
Potassium sorbate (NF)
Potassium sorbate, 99%
2,4-Hexadienoic acid potassium salt
Potassium (E,E')-sorbate; Potassium sorbate
2,4-Hexadienoic acid, (E,E)-, potassium salt
2,4-Hexadienoic acid, (E,E')-, potassium salt; 2,4-Hexadienoic acid, potassium salt
potassium;(2E,4E)-hexa-2,4-dienoate
2,4-Hexadienoic acid potassium salt, (E,E)-
C6H7O2.K
potassium ion sorbate
2,4-Hexadienoic acid, potassium salt (1:1)
AC1Q1TVO
DSSTox_CID_7835
EC 246-376-1
SCHEMBL3640
DSSTox_RID_78585
DSSTox_GSID_27835
potassium trans,trans-sorbate
2,4-Hexadienoic acid potassium
CHEMBL2106930
DTXSID7027835
trans-trans-Sorbic acid potassium
CHHHXKFHOYLYRE-STWYSWDKSA-M
Tox21_202757
AKOS015915488
LS-2488
potassium trans,trans-2,4-hexadienoate
RL02795
RTR-011350
NCGC00260304-01
AN-18708
E202
P893
CAS-24634-61-5
LS-145674
TR-011350
P1954
S0057
9207-EP2270004A1
9207-EP2270005A1
9207-EP2277876A1
9207-EP2292614A1
9207-EP2295412A1
9207-EP2295413A1
9207-EP2295550A2
9207-EP2298783A1
9207-EP2305669A1
9207-EP2305683A1
9207-EP2308844A2
9207-EP2308845A2
9207-EP2308846A2
9207-EP2308872A1
9207-EP2311837A1
9207-EP2311839A1
9207-EP2314589A1
9207-EP2316829A1
9207-EP2316834A1
9207-EP2316835A1
9207-EP2316837A1
D02411
trans,trans-2,4-Hexadienoic acid potassium salt
A817411
I14-6216
J-015607
J-524028
2,4-Hexadienoic acid, potassium salt, (E,E)- (9CI)

> <TPSA>
40.1

> <TotalAidCount>
212

> <TotalFormalCharge>
0

> <database>
PubChem Compound

> <matchingCount>
176

> <primaryID>
23676745

> <queryTranslation>
7628[CompoundID] OR 244[CompoundID] OR 25059[CompoundID] OR 7618[CompoundID] OR 7641[CompoundID] OR 5053[CompoundID] OR 637511[CompoundID] OR 7714[CompoundID] OR 7762[CompoundID] OR 25429[CompoundID]
OR 8842[CompoundID] OR 7794[CompoundID] OR 637566[CompoundID] OR 7843[CompoundID] OR 174[CompoundID] OR 7870[CompoundID] OR 86102[CompoundID] OR 7888[CompoundID] OR 7896[CompoundID] OR 1140[CompoundID
] OR 8042[CompoundID] OR 8058[CompoundID] OR 8078[CompoundID] OR 8087[CompoundID] OR 8117[CompoundID] OR 8133[CompoundID] OR 115224[CompoundID] OR 8175[CompoundID] OR 8194[CompoundID] OR 445639[Compou
ndID] OR 4944[CompoundID] OR 8294[CompoundID] OR 93541[CompoundID] OR 8360[CompoundID] OR 8363[CompoundID] OR 656612[CompoundID] OR 125098[CompoundID] OR 3352[CompoundID] OR 3303913[CompoundID] OR 648
05[CompoundID] OR 31200[CompoundID] OR 1712058[CompoundID] OR 31236[CompoundID] OR 31239[CompoundID] OR 31265[CompoundID] OR 31266[CompoundID] OR 31276[CompoundID] OR 6950273[CompoundID] OR 518659[Com
poundID] OR 14896[CompoundID] OR 14798[CompoundID] OR 14829[CompoundID] OR 14830[CompoundID] OR 8635[CompoundID] OR 23266[CompoundID] OR 4284[CompoundID] OR 8693[CompoundID] OR 22311[CompoundID] OR 87
59[CompoundID] OR 8785[CompoundID] OR 2723810[CompoundID] OR 8857[CompoundID] OR 3893[CompoundID] OR 9936739[CompoundID] OR 516892[CompoundID] OR 5430[CompoundID] OR 9017[CompoundID] OR 15433[Compound
ID] OR 107720[CompoundID] OR 9552081[CompoundID] OR 164825[CompoundID] OR 10275455[CompoundID] OR 16666[CompoundID] OR 9839306[CompoundID] OR 5282227[CompoundID] OR 23676745[CompoundID] OR 32881[Compo
undID] OR 91581[CompoundID] OR 39800[CompoundID] OR 33344[CompoundID] OR 15962220[CompoundID] OR 33528[CompoundID] OR 5365075[CompoundID] OR 62829[CompoundID] OR 162381[CompoundID] OR 517202[CompoundI
D] OR 6433353[CompoundID] OR 2730[CompoundID] OR 5372405[CompoundID] OR 36081[CompoundID] OR 3120[CompoundID] OR 3017[CompoundID] OR 2969[CompoundID] OR 18827[CompoundID] OR 19518[CompoundID] OR 19658
[CompoundID] OR 38283[CompoundID] OR 2758[CompoundID] OR 10112[CompoundID] OR 10340[CompoundID] OR 712[CompoundID] OR 5794[CompoundID] OR 3347[CompoundID] OR 104150[CompoundID] OR 2912[CompoundID] OR
2450[CompoundID] OR 40326[CompoundID] OR 40585[CompoundID] OR 517055[CompoundID] OR 10913[CompoundID] OR 108242[CompoundID] OR 62097[CompoundID] OR 41679[CompoundID] OR 54680676[CompoundID] OR 62118[C
ompoundID] OR 753[CompoundID] OR 1030[CompoundID] OR 23673837[CompoundID] OR 54678504[CompoundID] OR 11442[CompoundID] OR 11463[CompoundID] OR 22230[CompoundID] OR 440917[CompoundID] OR 6054[CompoundI
D] OR 43234[CompoundID] OR 22629[CompoundID] OR 3039[CompoundID] OR 2735067[CompoundID] OR 6144[CompoundID] OR 702[CompoundID] OR 284[CompoundID] OR 176[CompoundID] OR 91688[CompoundID] OR 22947[Compo
undID] OR 47445[CompoundID] OR 1711973[CompoundID] OR 243[CompoundID] OR 10342051[CompoundID] OR 5281875[CompoundID] OR 3776[CompoundID] OR 6224[CompoundID] OR 104926[CompoundID] OR 8755[CompoundID] O
R 338[CompoundID] OR 123622[CompoundID] OR 23954[CompoundID] OR 6334[CompoundID] OR 2537[CompoundID] OR 24261[CompoundID] OR 23665760[CompoundID] OR 83975[CompoundID] OR 784[CompoundID] OR 24437[Compo
undID] OR 5360315[CompoundID] OR 311[CompoundID] OR 6549[CompoundID] OR 107689[CompoundID] OR 17100[CompoundID] OR 24976875[CompoundID] OR 6654[CompoundID] OR 71245[CompoundID] OR 6442842[CompoundID]
OR 62334[CompoundID] OR 54698175[CompoundID] OR 6328154[CompoundID] OR 24762[CompoundID] OR 440950[CompoundID] OR 7017[CompoundID] OR 5281873[CompoundID] OR 323[CompoundID] OR 5281167[CompoundID] OR 7
175[CompoundID] OR 7292[CompoundID] OR 6335613[CompoundID] OR 7456[CompoundID] OR 7462[CompoundID]

> <resultIndex>
5

> <resultRange>
1-176

> <textQuery>
7628,244,25059,7618,7641,5053,637511,7714,7762,25429,8842,7794,637566,7843,174,7870,86102,7888,7896,1140,8042,8058,8078,8087,8117,8133,115224,8175,8194,445639,4944,8294,93541,8360,8363,656612,125098,3
352,3303913,64805,31200,1712058,31236,31239,31265,31266,31276,6950273,518659,14896,14798,14829,14830,8635,23266,4284,8693,22311,8759,8785,2723810,8857,3893,9936739,516892,5430,9017,15433,107720,955208
1,164825,10275455,16666,9839306,5282227,23676745,32881,91581,39800,33344,15962220,33528,5365075,62829,162381,517202,6433353,2730,5372405,36081,3120,3017,2969,18827,19518,19658,38283,2758,10112,10340,7
12,5794,3347,104150,2912,2450,40326,40585,517055,10913,108242,62097,41679,54680676,62118,753,1030,23673837,54678504,11442,11463,22230,440917,6054,43234,22629,3039,2735067,6144,702,284,176,91688,22947,
47445,1711973,243,10342051,5281875,3776,6224,104926,8755,338,123622,23954,6334,2537,24261,23665760,83975,784,24437,5360315,311,6549,107689,17100,24976875,6654,71245,6442842,62334,54698175,6328154,2476
2,440950,7017,5281873,323,5281167,7175,7292,6335613,7456,7462

$$$$
23,673,837
  SciTegic10191915303D

 65 64  0  0  1  0            999 V2000
    3.6390    3.5200   -0.5290 S   0  0
    2.4200    0.1720    0.3140 O   0  0
    4.6500    3.0490    0.5250 O   0  5
    2.7790    4.5220    0.0760 O   0  0
    4.3750    4.0180   -1.6780 O   0  0
    0.8340    1.7500    0.4450 O   0  0
   -0.2680    1.3440   -2.7050 O   0  0
    1.6660    0.4420   -3.3890 O   0  0
    2.6350    2.1330   -1.0450 C   0  0  3  0  0  0
    1.8710    1.3360   -0.0210 C   0  0
    1.7730    2.5120   -2.2500 C   0  0
    1.0570    1.3280   -2.8380 C   0  0
    1.6390   -0.5410    1.2640 C   0  0
    2.3220   -1.8690    1.5920 C   0  0  3  0  0  0
   -0.8830    0.1970   -3.2730 C   0  0
   -2.3970    0.2810   -3.0780 C   0  0  3  0  0  0
    1.8360   -2.4730    2.9100 C   0  0
    2.2680   -2.8630    0.4320 C   0  0
   -2.7970    0.3990   -1.6070 C   0  0
   -3.1490   -0.8320   -3.8070 C   0  0
    2.3750   -1.7300    4.1330 C   0  0
   -3.8380    1.4900   -1.3630 C   0  0
    3.0180   -2.3670   -0.8070 C   0  0
   -4.6620   -0.6210   -3.8070 C   0  0
    1.9180   -2.3550    5.4510 C   0  0
   -4.3030    1.5510    0.0920 C   0  0
    2.4590   -1.6150    6.6740 C   0  0
   -5.3420    2.6450    0.3360 C   0  0
    3.2300    1.4630   -1.6660 H   0  0
    2.4570    2.9360   -2.9860 H   0  0
    1.0530    3.2850   -1.9800 H   0  0
    0.6520   -0.7110    0.8320 H   0  0
    1.5410    0.0740    2.1580 H   0  0
    3.3260   -1.4610    1.7010 H   0  0
   -0.6310    0.1660   -4.3340 H   0  0
   -0.4790   -0.6850   -2.7790 H   0  0
   -2.7700    1.2600   -3.3810 H   0  0
    2.0840   -3.5330    2.9630 H   0  0
    0.7460   -2.5180    2.9340 H   0  0
    1.2340   -3.1090    0.1840 H   0  0
    2.6410   -3.8400    0.7420 H   0  0
   -3.1470   -0.5600   -1.2250 H   0  0
   -1.9180    0.5590   -0.9800 H   0  0
   -2.8950   -1.8070   -3.3870 H   0  0
   -2.7760   -0.9470   -4.8240 H   0  0
    2.1030   -0.6740    4.0940 H   0  0
    3.4610   -1.6620    4.0940 H   0  0
   -3.4630    2.4610   -1.6890 H   0  0
   -4.6900    1.3670   -2.0350 H   0  0
    3.1480   -3.1580   -1.5450 H   0  0
    4.0060   -1.9980   -0.5350 H   0  0
    2.4750   -1.5510   -1.2830 H   0  0
   -5.1760   -1.3610   -4.4220 H   0  0
   -4.9140    0.3650   -4.1910 H   0  0
   -5.0610   -0.6950   -2.7950 H   0  0
    2.1870   -3.4100    5.4900 H   0  0
    0.8300   -2.4220    5.4900 H   0  0
   -4.6800    0.5800    0.4160 H   0  0
   -3.4510    1.6700    0.7620 H   0  0
    2.1250   -2.0700    7.6060 H   0  0
    2.1250   -0.5760    6.6740 H   0  0
    3.5490   -1.6150    6.6740 H   0  0
   -5.6540    2.6520    1.3790 H   0  0
   -4.9380    3.6250    0.0780 H   0  0
   -6.2270    2.4790   -0.2770 H   0  0
  1  3  1  0
  1  4  2  0
  1  5  2  0
  1  9  1  0
  2 10  1  0
  2 13  1  0
  6 10  2  0
  7 12  1  0
  7 15  1  0
  8 12  2  0
  9 10  1  0
  9 11  1  0
 11 12  1  0
 13 14  1  0
 14 17  1  0
 14 18  1  0
 15 16  1  0
 16 19  1  0
 16 20  1  0
 17 21  1  0
 18 23  1  0
 19 22  1  0
 20 24  1  0
 21 25  1  0
 22 26  1  0
 25 27  1  0
 26 28  1  0
  9 29  1  0
 11 30  1  0
 11 31  1  0
 13 32  1  0
 13 33  1  0
 14 34  1  0
 15 35  1  0
 15 36  1  0
 16 37  1  0
 17 38  1  0
 17 39  1  0
 18 40  1  0
 18 41  1  0
 19 42  1  0
 19 43  1  0
 20 44  1  0
 20 45  1  0
 21 46  1  0
 21 47  1  0
 22 48  1  0
 22 49  1  0
 23 50  1  0
 23 51  1  0
 23 52  1  0
 24 53  1  0
 24 54  1  0
 24 55  1  0
 25 56  1  0
 25 57  1  0
 26 58  1  0
 26 59  1  0
 27 60  1  0
 27 61  1  0
 27 62  1  0
 28 63  1  0
 28 64  1  0
 28 65  1  0
M  CHG  1   3  -1
M  END
> <Name>
23,673,837

> <OBJECTID>
9223372062627921931

> <ActiveAidCount>
48

> <AtomChiralCount>
3

> <AtomChiralDefCount>
0

> <AtomChiralUndefCount>
3

> <BondChiralCount>
0

> <BondChiralDefCount>
0

> <BondChiralUndefCount>
0

> <CID>
23673837

> <CanonicalSmiles>
CCCCC(CC)COC(=O)CC(C(=O)OCC(CC)CCCC)S(=O)(=O)[O-].[Na+]

> <Complexity>
546

> <CovalentUnitCount>
2

> <CreateDate>
2008/02/05 00:00

> <HeavyAtomCount>
29

> <HydrogenBondAcceptorCount>
7

> <HydrogenBondDonorCount>
0

> <IUPACName>
sodium;1,4-bis(2-ethylhexoxy)-1,4-dioxobutane-2-sulfonate

> <InChI>
InChI=1S/C20H38O7S.Na/c1-5-9-11-16(7-3)14-26-19(21)13-18(28(23,24)25)20(22)27-15-17(8-4)12-10-6-2;/h16-18H,5-15H2,1-4H3,(H,23,24,25);/q;+1/p-1

> <InChIKey>
APSBXTVYXVQYAB-UHFFFAOYSA-M

> <IsomericSmiles>
CCCCC(CC)COC(=O)CC(C(=O)OCC(CC)CCCC)S(=O)(=O)[O-].[Na+]

> <IsotopeAtomCount>
0

> <MeSHHeading>
Dioctyl Sulfosuccinic Acid

> <MeSHTerm>
Sulfosuccinate, Diethylhexyl Sodium
Sodium Dioctylsulphosuccinate
Dioctyl Sulfosuccinate
diethylhexyl sodium sulfosuccinate
Dioctyl Sulfosuccinic Acid
Sulfosuccinic Acid bis(2-Ethylhexyl) Ester
DEH Na SS
Dioctyl Sulfosuccinic Acid, Magnesium Salt
Sodium Dioctyl Sulfosuccinate
Dioctyl Sulfosuccinate, Sodium
Aerosol OT
Docusate Potassium
Docusate Sodium
Docusate Calcium
Dioctyl Sulfosuccinic Acid, Calcium Salt
DOSS
Dioctyl Sulfosuccinates
DEH-Na-SS
Sulfosuccinate, Dioctyl
Sodium Sulfosuccinate, Diethylhexyl
Dioctylsulphosuccinate, Sodium
Colace
Dioctylsulfosuccinate
Docusate
Dioctyl Sulfosuccinic Acid, Ammonium Salt
Dioctyl Sulfosuccinic Acid, Potassium Salt
Dioctyl Sulfosuccinic Acid, Barium Salt
Sodium Bis(2-ethylhexyl)sulfosuccinate
Dioctyl Sulfosuccinic Acid, Sodium Salt
Sulfosuccinates, Dioctyl

> <MolecularFormula>
C20H37NaO7S

> <MolecularWeight>
444.6

> <PharmAction>
Specialty Uses of Chemicals
Chemical Actions and Uses
Surface-Active Agents

> <RotatableBondCount>
18

> <Smiles>
S(C(CC(=O)OCC(CC)CCCC)C(=O)OCC(CC)CCCC)(=O)(=O)[O-].[Na+]

> <SourceCategory>
Chemical Vendors
Legacy Depositors
Research and Development
Curation Efforts
Governmental Organizations
Subscription Services
Journal Publishers
NIH Initiatives

> <Synonym>
Docusate sodium
577-11-7
Dioctyl sulfosuccinate sodium salt
Dioctyl sodium sulfosuccinate
Aerosol OT
Constonate
Diox
Manoxol OT
Bis(2-ethylhexyl) sulfosuccinate sodium salt
Diomedicone
Clestol
Complemix
Defilin
Dialose
Dioctlyn
Dioctylal
Diosuccin
Disonate
Doxinate
Dulsivac
Laxinate
Mervamine
Molatoc
Molofac
Regutol
Requtol
Sobital
Soliwax
Colace
Coprol
Diovac
Kosate
Molcer
Obston
Softil
Velmol
Waxsol
Doxol
Nevax
Revac
Modane Soft
Alcopol O
Alphasol OT
Sulfimel DOS
Manoxal OT
Aerosol AOT
Aerosol GPG
Wetaid SR
Aerosol OT-A
Docusate (Sodium)
Docusate sodium salt
Laxinate 100
Sanmorin OT 70
Triton GR 7
Triton GR-5
Aerosol OT 70PG
Aerosol OT 75
Celanol DOS 65
Celanol DOS 75
DESS
Humifen WT 27G
Monawet MD 70E
Solusol-75%
Nikkol OTP 70
Aerosol A 501
Alkasurf SS-O 75
Solusol-100%
Nekal WT-27
Adekacol EC 8600
Berol 478
Geriplex
Unilax
Sodium bis(2-ethylhexyl) sulfosuccinate
Dialose Plus
Peri-Colace
Tex-Wet 1001
Natrii dioctylsulfosuccinas
Senokot S
Correctol Caplets
Correctol Tablets
Senokap DSS
D-S-S
Feen-a-Mint Pills
Sodium dioctyl sulphosuccinate
Correctol Extra Gentle Tablets
Bis(2-ethylhexyl) sodium sulfosuccinate
Docusate sodique [INN-French]
Docusato sodico [INN-Spanish]
Docusatum natricum [INN-Latin]
Sodium 2-ethylhexylsulfosuccinate
D-S-S Plus
Dioctyl ester of sodium sulfosuccinic acid
HSDB 3065
2-Ethylhexyl sulfosuccinate sodium
EINECS 209-406-4
MFCD00012455
SV 102
Bis(2-ethylhexyl)sodium sulfosuccinate
Dioctyl ester of sodium sulfosuccinate
Di-(2-ethylhexyl) sodium sulfosuccinate
Sodium di-(2-ethylhexyl) sulfosuccinate
Dioctyl
Bis(2-ethylhexyl) S-sodium sulfosuccinate
AI3-00239
Sodium 1,4-bis(2-ethylhexyl)sulfosuccinate
1,4-Bis(2-ethylhexyl) sodium sulfosuccinate
Sodium sulfodi-(2-ethylhexyl)-sulfosuccinate
Di(2-ethylhexyl)sulfosuccinic acid, sodium salt
Butanedioic acid, sulfo-, 1,4-bis(2-ethylhexyl) ester, sodium salt
Bis(ethylhexyl) ester of sodium sulfosuccinic acid
sodium docusate
Bis-2-ethylhexylester sulfojantaranu sodneho [Czech]
Sodium di(2-ethylhexyl)sulfosuccinate
Sulfosuccinic acid, bis(2-ethylhexyl)ester sodium salt
Sol sodowej sulfobursztynianu dwu-2-etyloheksylowego [Polish]
sodium 1,4-bis[(2-ethylhexyl)oxy]-1,4-dioxobutane-2-sulfonate
Succinic acid, sulfo-, 1,4-bis(2-ethylhexyl) ester, sodium salt
Sodium 1,4-bis(2-ethylhexyl) sulfosuccinate
DSSTox_CID_2959
DSSTox_RID_76808
DSSTox_GSID_22959
AOT
1,4-Bis(2-ethylhexyl)sulfobutanedioate, sodium salt
W-105447
Sulfosuccinic acid bis(2-ethylhexyl) ester sodium salt
Sulfosuccinic acid, di-(2-ethylhexyl) ester, sodium salt
Coloxyl
Docolace
Docuprene
Silace
Bloat treatment
Docusato sodico
Docusate sodique
Butanedioic acid, 2-sulfo-, 1,4-bis(2-ethylhexyl) ester, sodium salt (1:1)
Docusatum natricum
Doc Q Lace
CAS-577-11-7
Dioctyl sulfosuccinate, sodium salt, 96%
NCGC00164140-03
Dioctyl sodium sulphosuccinat
Docusatesodium
Prenexa
Purgasol
Vinacol
docusate-sodium
Docusate Sodium [USAN:BAN]
Docusate Sod
Senexon-S
Folca[s care pme
Folcal DHA
Senna-S
Colace (TN)
potassium 1,4-bis[(2-ethylhexyl)oxy]-1,4-dioxobutane-2-sulfonate
Docusate sodium [USAN:USP:INN:BAN]
Docusate sodium (USP)
AC1Q1VCR
AC1Q1VPX
Bis-2-ethylhexylester sulfojantaranu sodneho
NCGC00183136-01
EC 209-406-4
SCHEMBL4113
C20H37O7S.Na
MLS004773938
Sol sodowej sulfobursztynianu dwu-2-etyloheksylowego
BID117
CHEBI:4674
CHEMBL1905872
DTXSID8022959
C20H38O7S
Correctol Stool Softener Laxative
APSBXTVYXVQYAB-UHFFFAOYSA-M
ZX-AFC000817
HMS3264P07
HY-B1268
KS-00000WM2
Aerosol&trade; OT, Solid Anhydrous
Dioctyl sodium sulfosuccinate (JAN)
Sodium dioctyl sulfosuccinate (INN)
Tox21_112087
Tox21_113469
Tox21_201342
Tox21_300496
GK2341
s4588
DIOCTYL DISODIUM SULFOSUCCINATE
AKOS015901806
API0002467
CCG-213234
CS-4813
LS-3162
Sodium Di(2-ethylhexyl) Sulfosuccinate
Docusate sodium salt, BioXtra, >=99%
Dioctyl sulfosuccinate sodium salt, 96%
NCGC00164140-01
NCGC00254414-01
NCGC00258894-01
AK397808
AN-46032
AS-13347
E480
H957
SMR001595510
Aerosol&trade; OT Solution, 10% (w/w)
Dioctyl Sodium Sulfosuccinate with Ethanol
Dioctyl sulfosuccinate sodium salt, >=97%
FT-0689234
D00305
Docusate sodium salt, p.a., 99.0-100.5%
24978-EP2287154A1
24978-EP2308848A1
24978-EP2314574A1
88565-EP2298076A1
88565-EP2298077A1
88565-EP2301353A1
88565-EP2305031A1
88565-EP2305034A1
88565-EP2305035A1
Docusate sodium salt, purum, >=96.0% (TLC)
paragraph signthornEthA>>ucuceEa>>CEaAAE AAENI
Docusate sodium salt, BioUltra, >=99.0% (TLC)
Docusate sodium, meets USP testing specifications
Dioctyl Sodium Sulfosuccinate with Diethylene Glycol
Dioctyl Sodium Sulfosuccinate with Propylene Glycol
E<<(2-OO>>u(1/4) masculine>>u)>>C>>ucuceEaAAE
I14-14698
F8880-5559
sodium 1,4-bis(2-ethylhexoxy)-1,4-dioxobutane-2-sulfonate
Sulfobutanedioic acid bis(2-ethylhexyl ester) sodium salt
Docusate sodium, British Pharmacopoeia (BP) Reference Standard
Docusate sodium, European Pharmacopoeia (EP) Reference Standard
sodium 1,4-bis(2-ethylhexoxy)-1,4-dioxo-butane-2-sulfonate
sodium 1,4-bis(2-ethylhexyloxy)-1,4-dioxobutane-2-sulfonate
Docusate sodium, United States Pharmacopeia (USP) Reference Standard
Dioctyl Sodium Sulfosuccinate with Diethylene Glycol and Glycol Ethers
E<<(2-OO(1/4) masculine>>u)>>C>>u paragraph sign inverted exclamation mark paragraph signthornEaAAE AAENI

> <TPSA>
118

> <TotalAidCount>
259

> <TotalFormalCharge>
0

> <database>
PubChem Compound

> <matchingCount>
176

> <primaryID>
23673837

> <queryTranslation>
7628[CompoundID] OR 244[CompoundID] OR 25059[CompoundID] OR 7618[CompoundID] OR 7641[CompoundID] OR 5053[CompoundID] OR 637511[CompoundID] OR 7714[CompoundID] OR 7762[CompoundID] OR 25429[CompoundID]
OR 8842[CompoundID] OR 7794[CompoundID] OR 637566[CompoundID] OR 7843[CompoundID] OR 174[CompoundID] OR 7870[CompoundID] OR 86102[CompoundID] OR 7888[CompoundID] OR 7896[CompoundID] OR 1140[CompoundID
] OR 8042[CompoundID] OR 8058[CompoundID] OR 8078[CompoundID] OR 8087[CompoundID] OR 8117[CompoundID] OR 8133[CompoundID] OR 115224[CompoundID] OR 8175[CompoundID] OR 8194[CompoundID] OR 445639[Compou
ndID] OR 4944[CompoundID] OR 8294[CompoundID] OR 93541[CompoundID] OR 8360[CompoundID] OR 8363[CompoundID] OR 656612[CompoundID] OR 125098[CompoundID] OR 3352[CompoundID] OR 3303913[CompoundID] OR 648
05[CompoundID] OR 31200[CompoundID] OR 1712058[CompoundID] OR 31236[CompoundID] OR 31239[CompoundID] OR 31265[CompoundID] OR 31266[CompoundID] OR 31276[CompoundID] OR 6950273[CompoundID] OR 518659[Com
poundID] OR 14896[CompoundID] OR 14798[CompoundID] OR 14829[CompoundID] OR 14830[CompoundID] OR 8635[CompoundID] OR 23266[CompoundID] OR 4284[CompoundID] OR 8693[CompoundID] OR 22311[CompoundID] OR 87
59[CompoundID] OR 8785[CompoundID] OR 2723810[CompoundID] OR 8857[CompoundID] OR 3893[CompoundID] OR 9936739[CompoundID] OR 516892[CompoundID] OR 5430[CompoundID] OR 9017[CompoundID] OR 15433[Compound
ID] OR 107720[CompoundID] OR 9552081[CompoundID] OR 164825[CompoundID] OR 10275455[CompoundID] OR 16666[CompoundID] OR 9839306[CompoundID] OR 5282227[CompoundID] OR 23676745[CompoundID] OR 32881[Compo
undID] OR 91581[CompoundID] OR 39800[CompoundID] OR 33344[CompoundID] OR 15962220[CompoundID] OR 33528[CompoundID] OR 5365075[CompoundID] OR 62829[CompoundID] OR 162381[CompoundID] OR 517202[CompoundI
D] OR 6433353[CompoundID] OR 2730[CompoundID] OR 5372405[CompoundID] OR 36081[CompoundID] OR 3120[CompoundID] OR 3017[CompoundID] OR 2969[CompoundID] OR 18827[CompoundID] OR 19518[CompoundID] OR 19658
[CompoundID] OR 38283[CompoundID] OR 2758[CompoundID] OR 10112[CompoundID] OR 10340[CompoundID] OR 712[CompoundID] OR 5794[CompoundID] OR 3347[CompoundID] OR 104150[CompoundID] OR 2912[CompoundID] OR
2450[CompoundID] OR 40326[CompoundID] OR 40585[CompoundID] OR 517055[CompoundID] OR 10913[CompoundID] OR 108242[CompoundID] OR 62097[CompoundID] OR 41679[CompoundID] OR 54680676[CompoundID] OR 62118[C
ompoundID] OR 753[CompoundID] OR 1030[CompoundID] OR 23673837[CompoundID] OR 54678504[CompoundID] OR 11442[CompoundID] OR 11463[CompoundID] OR 22230[CompoundID] OR 440917[CompoundID] OR 6054[CompoundI
D] OR 43234[CompoundID] OR 22629[CompoundID] OR 3039[CompoundID] OR 2735067[CompoundID] OR 6144[CompoundID] OR 702[CompoundID] OR 284[CompoundID] OR 176[CompoundID] OR 91688[CompoundID] OR 22947[Compo
undID] OR 47445[CompoundID] OR 1711973[CompoundID] OR 243[CompoundID] OR 10342051[CompoundID] OR 5281875[CompoundID] OR 3776[CompoundID] OR 6224[CompoundID] OR 104926[CompoundID] OR 8755[CompoundID] O
R 338[CompoundID] OR 123622[CompoundID] OR 23954[CompoundID] OR 6334[CompoundID] OR 2537[CompoundID] OR 24261[CompoundID] OR 23665760[CompoundID] OR 83975[CompoundID] OR 784[CompoundID] OR 24437[Compo
undID] OR 5360315[CompoundID] OR 311[CompoundID] OR 6549[CompoundID] OR 107689[CompoundID] OR 17100[CompoundID] OR 24976875[CompoundID] OR 6654[CompoundID] OR 71245[CompoundID] OR 6442842[CompoundID]
OR 62334[CompoundID] OR 54698175[CompoundID] OR 6328154[CompoundID] OR 24762[CompoundID] OR 440950[CompoundID] OR 7017[CompoundID] OR 5281873[CompoundID] OR 323[CompoundID] OR 5281167[CompoundID] OR 7
175[CompoundID] OR 7292[CompoundID] OR 6335613[CompoundID] OR 7456[CompoundID] OR 7462[CompoundID]

> <resultIndex>
6

> <resultRange>
1-176

> <textQuery>
7628,244,25059,7618,7641,5053,637511,7714,7762,25429,8842,7794,637566,7843,174,7870,86102,7888,7896,1140,8042,8058,8078,8087,8117,8133,115224,8175,8194,445639,4944,8294,93541,8360,8363,656612,125098,3
352,3303913,64805,31200,1712058,31236,31239,31265,31266,31276,6950273,518659,14896,14798,14829,14830,8635,23266,4284,8693,22311,8759,8785,2723810,8857,3893,9936739,516892,5430,9017,15433,107720,955208
1,164825,10275455,16666,9839306,5282227,23676745,32881,91581,39800,33344,15962220,33528,5365075,62829,162381,517202,6433353,2730,5372405,36081,3120,3017,2969,18827,19518,19658,38283,2758,10112,10340,7
12,5794,3347,104150,2912,2450,40326,40585,517055,10913,108242,62097,41679,54680676,62118,753,1030,23673837,54678504,11442,11463,22230,440917,6054,43234,22629,3039,2735067,6144,702,284,176,91688,22947,
47445,1711973,243,10342051,5281875,3776,6224,104926,8755,338,123622,23954,6334,2537,24261,23665760,83975,784,24437,5360315,311,6549,107689,17100,24976875,6654,71245,6442842,62334,54698175,6328154,2476
2,440950,7017,5281873,323,5281167,7175,7292,6335613,7456,7462

$$$$
23,665,760
  SciTegic10191915303D

  2  1  0  0  0  0            999 V2000
    1.0000    0.0000    0.0000 Cl  0  0
   -1.0000    0.0000    0.0000 O   0  5
  1  2  1  0
M  CHG  1   2  -1
M  END
> <Name>
23,665,760

> <OBJECTID>
9223372066922889227

> <ActiveAidCount>
25

> <AtomChiralCount>
0

> <AtomChiralDefCount>
0

> <AtomChiralUndefCount>
0

> <BondChiralCount>
0

> <BondChiralDefCount>
0

> <BondChiralUndefCount>
0

> <CID>
23665760

> <CanonicalSmiles>
[O-]Cl.[Na+]

> <Complexity>
4.8

> <CovalentUnitCount>
2

> <CreateDate>
2008/02/05 00:00

> <HeavyAtomCount>
3

> <HydrogenBondAcceptorCount>
1

> <HydrogenBondDonorCount>
0

> <IUPACName>
sodium;hypochlorite

> <InChI>
InChI=1S/ClO.Na/c1-2;/q-1;+1

> <InChIKey>
SUKJFIGYRHOWBL-UHFFFAOYSA-N

> <IsomericSmiles>
[O-]Cl.[Na+]

> <IsotopeAtomCount>
0

> <MeSHHeading>
Sodium Hypochlorite

> <MeSHTerm>
Sodium Hypochlorite
Hypochlorite, Sodium
Antiformin
Clorox
Sodium Hypochlorite (Solution)

> <MolecularFormula>
ClNaO

> <MolecularWeight>
74.44

> <PharmAction>
Chemical Actions and Uses
Toxic Actions
Anti-Infective Agents
Noxae
Disinfectants
Therapeutic Uses
Pharmacologic Actions
Specialty Uses of Chemicals
Oxidants

> <RotatableBondCount>
0

> <Smiles>
Cl[O-].[Na+]

> <SourceCategory>
Legacy Depositors
Chemical Vendors
Research and Development
Curation Efforts
Governmental Organizations
Subscription Services
Journal Publishers
NIH Initiatives

> <Synonym>
SODIUM HYPOCHLORITE
7681-52-9
Antiformin
Sodium oxychloride
Chlorox
Clorox
Javex
Javelle water
Hypochlorous acid, sodium salt
Hypochlorite sodium
Carrel-dakin solution
Chloros
Cloralex
Cloropool
Dispatch
Hyclorite
Klorocin
Parozone
Surchlor
Youxiaolin
Deosan
Hypure
Milton
Dakins solution
Hospital Milton
Javel water
Milton Crystals
Neo-cleaner
Household bleach
Neoseptal CL
Dakin's solution
Hypure N
Purin B
B-K liquid
Modified dakin's solution
Hyposan and Voxsan
Solutions, Dakin's
AD Gel
Clorox liquid bleach
Sodium hypochlorite solution
Sunnysol 150
Caswell No. 776
UNII-DY38VHM5OD
Dental antiformin
NaClO
NaOCl
Sodium hypochlorite (NaClO)
Sodium hypochlorite (NaOCl)
CCRIS 708
Deosan Green Label Steriliser
HSDB 748
XY 12
EINECS 231-668-3
DY38VHM5OD
EPA Pesticide Chemical Code 014703
UN 1791
CHEBI:32146
Chlorinated water (sodium hypochlorite)
Hypochlorous acid, sodium salt (1:1)
NCGC00091027-01
Sodium hypochlorite [Hypochloride salts]
Sodium hypochlorite solution (15% or less)
SODIUM HYPOCHLORITE [SOLUTION, DILUTED]
Dakins quarter
Dakins half
sodiumhypochlorite
Sodium hypochlorite, 5% active chlorine
Di-Dak-Sol
Sodium hypochlorite, 10-15% active chlorine
Texant
Sodium hypochlorite [USP:JAN]
Sodium hypochlorite [USAN:JAN]
sodium hypochiorite
sodium hypochloride
Sodium hypo chlorite
MFCD00011120
Texant (TN)
ACMC-20ajo6
AC1Q1VAQ
ANTIFORMIN, DENTAL
DSSTox_CID_1276
EC 231-668-3
DSSTox_RID_76052
DSSTox_GSID_21276
Sodium hypochlorite (JAN/USP)
CHEMBL1334078
DTXSID8021276
CTK3J2241
SUKJFIGYRHOWBL-UHFFFAOYSA-N
Surgical chlorinated soda solution
Sodium hypochlorite, 14% solution
Sodium Hypochlorite solution 6-14%
Tox21_111062
AKOS015950665
LS-2426
RP18341
RTR-037749
S345
CAS-7681-52-9
TR-037749
S0939
D01711
Q-200732
I14-98906
Sodium hypochlorite, aqueous solution, 12-15% available chlorine

> <TPSA>
23.1

> <TotalAidCount>
342

> <TotalFormalCharge>
0

> <database>
PubChem Compound

> <matchingCount>
176

> <primaryID>
23665760

> <queryTranslation>
7628[CompoundID] OR 244[CompoundID] OR 25059[CompoundID] OR 7618[CompoundID] OR 7641[CompoundID] OR 5053[CompoundID] OR 637511[CompoundID] OR 7714[CompoundID] OR 7762[CompoundID] OR 25429[CompoundID]
OR 8842[CompoundID] OR 7794[CompoundID] OR 637566[CompoundID] OR 7843[CompoundID] OR 174[CompoundID] OR 7870[CompoundID] OR 86102[CompoundID] OR 7888[CompoundID] OR 7896[CompoundID] OR 1140[CompoundID
] OR 8042[CompoundID] OR 8058[CompoundID] OR 8078[CompoundID] OR 8087[CompoundID] OR 8117[CompoundID] OR 8133[CompoundID] OR 115224[CompoundID] OR 8175[CompoundID] OR 8194[CompoundID] OR 445639[Compou
ndID] OR 4944[CompoundID] OR 8294[CompoundID] OR 93541[CompoundID] OR 8360[CompoundID] OR 8363[CompoundID] OR 656612[CompoundID] OR 125098[CompoundID] OR 3352[CompoundID] OR 3303913[CompoundID] OR 648
05[CompoundID] OR 31200[CompoundID] OR 1712058[CompoundID] OR 31236[CompoundID] OR 31239[CompoundID] OR 31265[CompoundID] OR 31266[CompoundID] OR 31276[CompoundID] OR 6950273[CompoundID] OR 518659[Com
poundID] OR 14896[CompoundID] OR 14798[CompoundID] OR 14829[CompoundID] OR 14830[CompoundID] OR 8635[CompoundID] OR 23266[CompoundID] OR 4284[CompoundID] OR 8693[CompoundID] OR 22311[CompoundID] OR 87
59[CompoundID] OR 8785[CompoundID] OR 2723810[CompoundID] OR 8857[CompoundID] OR 3893[CompoundID] OR 9936739[CompoundID] OR 516892[CompoundID] OR 5430[CompoundID] OR 9017[CompoundID] OR 15433[Compound
ID] OR 107720[CompoundID] OR 9552081[CompoundID] OR 164825[CompoundID] OR 10275455[CompoundID] OR 16666[CompoundID] OR 9839306[CompoundID] OR 5282227[CompoundID] OR 23676745[CompoundID] OR 32881[Compo
undID] OR 91581[CompoundID] OR 39800[CompoundID] OR 33344[CompoundID] OR 15962220[CompoundID] OR 33528[CompoundID] OR 5365075[CompoundID] OR 62829[CompoundID] OR 162381[CompoundID] OR 517202[CompoundI
D] OR 6433353[CompoundID] OR 2730[CompoundID] OR 5372405[CompoundID] OR 36081[CompoundID] OR 3120[CompoundID] OR 3017[CompoundID] OR 2969[CompoundID] OR 18827[CompoundID] OR 19518[CompoundID] OR 19658
[CompoundID] OR 38283[CompoundID] OR 2758[CompoundID] OR 10112[CompoundID] OR 10340[CompoundID] OR 712[CompoundID] OR 5794[CompoundID] OR 3347[CompoundID] OR 104150[CompoundID] OR 2912[CompoundID] OR
2450[CompoundID] OR 40326[CompoundID] OR 40585[CompoundID] OR 517055[CompoundID] OR 10913[CompoundID] OR 108242[CompoundID] OR 62097[CompoundID] OR 41679[CompoundID] OR 54680676[CompoundID] OR 62118[C
ompoundID] OR 753[CompoundID] OR 1030[CompoundID] OR 23673837[CompoundID] OR 54678504[CompoundID] OR 11442[CompoundID] OR 11463[CompoundID] OR 22230[CompoundID] OR 440917[CompoundID] OR 6054[CompoundI
D] OR 43234[CompoundID] OR 22629[CompoundID] OR 3039[CompoundID] OR 2735067[CompoundID] OR 6144[CompoundID] OR 702[CompoundID] OR 284[CompoundID] OR 176[CompoundID] OR 91688[CompoundID] OR 22947[Compo
undID] OR 47445[CompoundID] OR 1711973[CompoundID] OR 243[CompoundID] OR 10342051[CompoundID] OR 5281875[CompoundID] OR 3776[CompoundID] OR 6224[CompoundID] OR 104926[CompoundID] OR 8755[CompoundID] O
R 338[CompoundID] OR 123622[CompoundID] OR 23954[CompoundID] OR 6334[CompoundID] OR 2537[CompoundID] OR 24261[CompoundID] OR 23665760[CompoundID] OR 83975[CompoundID] OR 784[CompoundID] OR 24437[Compo
undID] OR 5360315[CompoundID] OR 311[CompoundID] OR 6549[CompoundID] OR 107689[CompoundID] OR 17100[CompoundID] OR 24976875[CompoundID] OR 6654[CompoundID] OR 71245[CompoundID] OR 6442842[CompoundID]
OR 62334[CompoundID] OR 54698175[CompoundID] OR 6328154[CompoundID] OR 24762[CompoundID] OR 440950[CompoundID] OR 7017[CompoundID] OR 5281873[CompoundID] OR 323[CompoundID] OR 5281167[CompoundID] OR 7
175[CompoundID] OR 7292[CompoundID] OR 6335613[CompoundID] OR 7456[CompoundID] OR 7462[CompoundID]

> <resultIndex>
7

> <resultRange>
1-176

> <textQuery>
7628,244,25059,7618,7641,5053,637511,7714,7762,25429,8842,7794,637566,7843,174,7870,86102,7888,7896,1140,8042,8058,8078,8087,8117,8133,115224,8175,8194,445639,4944,8294,93541,8360,8363,656612,125098,3
352,3303913,64805,31200,1712058,31236,31239,31265,31266,31276,6950273,518659,14896,14798,14829,14830,8635,23266,4284,8693,22311,8759,8785,2723810,8857,3893,9936739,516892,5430,9017,15433,107720,955208
1,164825,10275455,16666,9839306,5282227,23676745,32881,91581,39800,33344,15962220,33528,5365075,62829,162381,517202,6433353,2730,5372405,36081,3120,3017,2969,18827,19518,19658,38283,2758,10112,10340,7
12,5794,3347,104150,2912,2450,40326,40585,517055,10913,108242,62097,41679,54680676,62118,753,1030,23673837,54678504,11442,11463,22230,440917,6054,43234,22629,3039,2735067,6144,702,284,176,91688,22947,
47445,1711973,243,10342051,5281875,3776,6224,104926,8755,338,123622,23954,6334,2537,24261,23665760,83975,784,24437,5360315,311,6549,107689,17100,24976875,6654,71245,6442842,62334,54698175,6328154,2476
2,440950,7017,5281873,323,5281167,7175,7292,6335613,7456,7462

$$$$
15,962,220
  SciTegic10191915303D

 15 16  0  0  0  0            999 V2000
   -1.6640   -1.0450   -0.4670 C   0  0
   -2.0470    0.2950   -0.2230 C   0  0
   -1.0760    1.2420    0.1820 C   0  0
    0.2720    0.8380    0.3360 C   0  0
    0.6580   -0.4820    0.1080 C   0  0
   -0.3120   -1.4330   -0.3030 C   0  0
    2.0820   -0.7620    0.3260 C   0  0
    2.6860    0.3180    0.7030 N   0  0
    1.6970    1.6470    0.7600 S   0  0
    2.0430    2.4860   -0.3730 O   0  0
   -2.4000   -1.7690   -0.7810 H   0  0
   -3.0780    0.5940   -0.3440 H   0  0
   -1.3610    2.2660    0.3670 H   0  0
   -0.0230   -2.4570   -0.4880 H   0  0
    2.5240   -1.7380    0.1950 H   0  0
  1  2  2  0
  1  6  1  0
  2  3  1  0
  3  4  2  0
  4  5  1  0
  4  9  1  0
  5  6  2  0
  5  7  1  0
  7  8  2  0
  8  9  1  0
  9 10  2  0
  1 11  1  0
  2 12  1  0
  3 13  1  0
  6 14  1  0
  7 15  1  0
M  END
> <Name>
15,962,220

> <OBJECTID>
9223372071217856523

> <ActiveAidCount>
0

> <AtomChiralCount>
0

> <AtomChiralDefCount>
0

> <AtomChiralUndefCount>
0

> <BondChiralCount>
0

> <BondChiralDefCount>
0

> <BondChiralUndefCount>
0

> <CID>
15962220

> <CanonicalSmiles>
C1=CC=C2C(=C1)C=NS2=O

> <Complexity>
190

> <CovalentUnitCount>
1

> <CreateDate>
2007/03/08 00:00

> <HeavyAtomCount>
10

> <HydrogenBondAcceptorCount>
3

> <HydrogenBondDonorCount>
0

> <IUPACName>
1,2-benzothiazole 1-oxide

> <InChI>
InChI=1S/C7H5NOS/c9-10-7-4-2-1-3-6(7)5-8-10/h1-5H

> <InChIKey>
KANAPVJGZDNSCZ-UHFFFAOYSA-N

> <IsomericSmiles>
C1=CC=C2C(=C1)C=NS2=O

> <IsotopeAtomCount>
0

> <MeSHHeading>
1,2-benzisothiazoline-3-one

> <MeSHTerm>
Proxel
1,2-benzisothiazoline-3-one
benzisothiazolinone
benzisothiazolone
1,2-benzisothiazolin-3-one

> <MolecularFormula>
C7H5NOS

> <MolecularWeight>
151.19

> <PharmAction>
Hematologic Agents
Disinfectants
Specialty Uses of Chemicals
Therapeutic Uses
Pharmacologic Actions
Platelet Aggregation Inhibitors
Chemical Actions and Uses
Anti-Infective Agents

> <RotatableBondCount>
0

> <Smiles>
c1cc(C=NS2=O)c2cc1

> <SourceCategory>
Research and Development
Curation Efforts
Chemical Vendors
Legacy Depositors
Journal Publishers
Governmental Organizations

> <Synonym>
benzisothiazolinone
851309-27-8
benzoisothiazolinone
SCHEMBL26079
1,2-Benzisothiazole, 1-oxide
CTK2I4402
DTXSID10580500
KANAPVJGZDNSCZ-UHFFFAOYSA-N
1H-1lambda~4~,2-Benzothiazol-1-one

> <TPSA>
48.6

> <TotalAidCount>
0

> <TotalFormalCharge>
0

> <XLogP>
0.7

> <database>
PubChem Compound

> <matchingCount>
176

> <primaryID>
15962220

> <queryTranslation>
7628[CompoundID] OR 244[CompoundID] OR 25059[CompoundID] OR 7618[CompoundID] OR 7641[CompoundID] OR 5053[CompoundID] OR 637511[CompoundID] OR 7714[CompoundID] OR 7762[CompoundID] OR 25429[CompoundID]
OR 8842[CompoundID] OR 7794[CompoundID] OR 637566[CompoundID] OR 7843[CompoundID] OR 174[CompoundID] OR 7870[CompoundID] OR 86102[CompoundID] OR 7888[CompoundID] OR 7896[CompoundID] OR 1140[CompoundID
] OR 8042[CompoundID] OR 8058[CompoundID] OR 8078[CompoundID] OR 8087[CompoundID] OR 8117[CompoundID] OR 8133[CompoundID] OR 115224[CompoundID] OR 8175[CompoundID] OR 8194[CompoundID] OR 445639[Compou
ndID] OR 4944[CompoundID] OR 8294[CompoundID] OR 93541[CompoundID] OR 8360[CompoundID] OR 8363[CompoundID] OR 656612[CompoundID] OR 125098[CompoundID] OR 3352[CompoundID] OR 3303913[CompoundID] OR 648
05[CompoundID] OR 31200[CompoundID] OR 1712058[CompoundID] OR 31236[CompoundID] OR 31239[CompoundID] OR 31265[CompoundID] OR 31266[CompoundID] OR 31276[CompoundID] OR 6950273[CompoundID] OR 518659[Com
poundID] OR 14896[CompoundID] OR 14798[CompoundID] OR 14829[CompoundID] OR 14830[CompoundID] OR 8635[CompoundID] OR 23266[CompoundID] OR 4284[CompoundID] OR 8693[CompoundID] OR 22311[CompoundID] OR 87
59[CompoundID] OR 8785[CompoundID] OR 2723810[CompoundID] OR 8857[CompoundID] OR 3893[CompoundID] OR 9936739[CompoundID] OR 516892[CompoundID] OR 5430[CompoundID] OR 9017[CompoundID] OR 15433[Compound
ID] OR 107720[CompoundID] OR 9552081[CompoundID] OR 164825[CompoundID] OR 10275455[CompoundID] OR 16666[CompoundID] OR 9839306[CompoundID] OR 5282227[CompoundID] OR 23676745[CompoundID] OR 32881[Compo
undID] OR 91581[CompoundID] OR 39800[CompoundID] OR 33344[CompoundID] OR 15962220[CompoundID] OR 33528[CompoundID] OR 5365075[CompoundID] OR 62829[CompoundID] OR 162381[CompoundID] OR 517202[CompoundI
D] OR 6433353[CompoundID] OR 2730[CompoundID] OR 5372405[CompoundID] OR 36081[CompoundID] OR 3120[CompoundID] OR 3017[CompoundID] OR 2969[CompoundID] OR 18827[CompoundID] OR 19518[CompoundID] OR 19658
[CompoundID] OR 38283[CompoundID] OR 2758[CompoundID] OR 10112[CompoundID] OR 10340[CompoundID] OR 712[CompoundID] OR 5794[CompoundID] OR 3347[CompoundID] OR 104150[CompoundID] OR 2912[CompoundID] OR
2450[CompoundID] OR 40326[CompoundID] OR 40585[CompoundID] OR 517055[CompoundID] OR 10913[CompoundID] OR 108242[CompoundID] OR 62097[CompoundID] OR 41679[CompoundID] OR 54680676[CompoundID] OR 62118[C
ompoundID] OR 753[CompoundID] OR 1030[CompoundID] OR 23673837[CompoundID] OR 54678504[CompoundID] OR 11442[CompoundID] OR 11463[CompoundID] OR 22230[CompoundID] OR 440917[CompoundID] OR 6054[CompoundI
D] OR 43234[CompoundID] OR 22629[CompoundID] OR 3039[CompoundID] OR 2735067[CompoundID] OR 6144[CompoundID] OR 702[CompoundID] OR 284[CompoundID] OR 176[CompoundID] OR 91688[CompoundID] OR 22947[Compo
undID] OR 47445[CompoundID] OR 1711973[CompoundID] OR 243[CompoundID] OR 10342051[CompoundID] OR 5281875[CompoundID] OR 3776[CompoundID] OR 6224[CompoundID] OR 104926[CompoundID] OR 8755[CompoundID] O
R 338[CompoundID] OR 123622[CompoundID] OR 23954[CompoundID] OR 6334[CompoundID] OR 2537[CompoundID] OR 24261[CompoundID] OR 23665760[CompoundID] OR 83975[CompoundID] OR 784[CompoundID] OR 24437[Compo
undID] OR 5360315[CompoundID] OR 311[CompoundID] OR 6549[CompoundID] OR 107689[CompoundID] OR 17100[CompoundID] OR 24976875[CompoundID] OR 6654[CompoundID] OR 71245[CompoundID] OR 6442842[CompoundID]
OR 62334[CompoundID] OR 54698175[CompoundID] OR 6328154[CompoundID] OR 24762[CompoundID] OR 440950[CompoundID] OR 7017[CompoundID] OR 5281873[CompoundID] OR 323[CompoundID] OR 5281167[CompoundID] OR 7
175[CompoundID] OR 7292[CompoundID] OR 6335613[CompoundID] OR 7456[CompoundID] OR 7462[CompoundID]

> <resultIndex>
8

> <resultRange>
1-176

> <textQuery>
7628,244,25059,7618,7641,5053,637511,7714,7762,25429,8842,7794,637566,7843,174,7870,86102,7888,7896,1140,8042,8058,8078,8087,8117,8133,115224,8175,8194,445639,4944,8294,93541,8360,8363,656612,125098,3
352,3303913,64805,31200,1712058,31236,31239,31265,31266,31276,6950273,518659,14896,14798,14829,14830,8635,23266,4284,8693,22311,8759,8785,2723810,8857,3893,9936739,516892,5430,9017,15433,107720,955208
1,164825,10275455,16666,9839306,5282227,23676745,32881,91581,39800,33344,15962220,33528,5365075,62829,162381,517202,6433353,2730,5372405,36081,3120,3017,2969,18827,19518,19658,38283,2758,10112,10340,7
12,5794,3347,104150,2912,2450,40326,40585,517055,10913,108242,62097,41679,54680676,62118,753,1030,23673837,54678504,11442,11463,22230,440917,6054,43234,22629,3039,2735067,6144,702,284,176,91688,22947,
47445,1711973,243,10342051,5281875,3776,6224,104926,8755,338,123622,23954,6334,2537,24261,23665760,83975,784,24437,5360315,311,6549,107689,17100,24976875,6654,71245,6442842,62334,54698175,6328154,2476
2,440950,7017,5281873,323,5281167,7175,7292,6335613,7456,7462

$$$$
10,342,051
  SciTegic10191915303D

 52 54  0  0  1  0            999 V2000
    7.1100    1.9820    3.1470 Cl  0  0
    0.7060    0.0000    0.7170 O   0  0
   -2.4840   -2.3430   -3.6680 O   0  0
    0.6500   -1.1510    2.6390 O   0  0
    2.5210   -2.7860    0.1640 N   0  0
    1.1630    1.1550    2.7650 C   0  0  2  0  0  0
    0.8140   -0.1160    2.0380 C   0  0
    2.6320    1.3600    2.8600 C   0  0
    0.4080   -1.2390    0.0890 C   0  0  1  0  0  0
   -0.0810   -0.9890   -1.2920 C   0  0
    0.4920    1.2470    4.1350 C   0  0
   -1.5460   -1.5750   -3.1510 C   0  0
   -1.0820   -1.8090   -1.8440 C   0  0
    3.4860    0.2570    3.0400 C   0  0
    3.1700    2.6560    2.7720 C   0  0
    0.4570    0.0670   -2.0490 C   0  0
   -1.0060   -0.5180   -3.9040 C   0  0
    1.5850   -2.1010    0.1310 C   0  0
   -0.0060    0.3020   -3.3550 C   0  0
    5.4150    1.7470    3.0400 C   0  0
    4.8760    0.4490    3.1290 C   0  0
    4.5590    2.8500    2.8630 C   0  0
   -3.3900   -1.7780   -4.4400 C   0  0
   -1.0290    1.1060    4.0580 C   0  0
    1.1200    0.3060    5.1640 C   0  0
   -3.8800   -2.4600   -5.5690 C   0  0
   -3.8710   -0.4910   -4.1400 C   0  0
   -4.8460   -1.8580   -6.3930 C   0  0
   -4.8370    0.1120   -4.9640 C   0  0
   -5.3250   -0.5720   -6.0910 C   0  0
    0.9030    2.0170    2.1500 H   0  0
   -0.3910   -1.6850    0.6820 H   0  0
    0.7670    2.1740    4.6380 H   0  0
   -1.4970   -2.6210   -1.2650 H   0  0
    3.0790   -0.7410    3.1090 H   0  0
    2.5190    3.5070    2.6350 H   0  0
    1.2260    0.7000   -1.6310 H   0  0
   -1.3590   -0.3350   -4.9080 H   0  0
    0.4070    1.1130   -3.9360 H   0  0
    5.5200   -0.4070    3.2650 H   0  0
    4.9580    3.8520    2.7950 H   0  0
   -1.5040    1.3000    5.0190 H   0  0
   -1.3070    0.0990    3.7470 H   0  0
   -1.4450    1.8050    3.3330 H   0  0
    0.6510    0.4340    6.1400 H   0  0
    1.0150   -0.7320    4.8510 H   0  0
    2.1840    0.5140    5.2770 H   0  0
   -3.5150   -3.4480   -5.8040 H   0  0
   -3.4990    0.0370   -3.2750 H   0  0
   -5.2210   -2.3840   -7.2590 H   0  0
   -5.2050    1.1000   -4.7310 H   0  0
   -6.0680   -0.1090   -6.7240 H   0  0
  1 20  1  0
  2  7  1  0
  2  9  1  0
  3 12  1  0
  3 23  1  0
  4  7  2  0
  5 18  3  0
  6  7  1  0
  6  8  1  0
  6 11  1  0
  8 14  2  0
  8 15  1  0
  9 10  1  0
  9 18  1  0
 10 13  2  0
 10 16  1  0
 11 24  1  0
 11 25  1  0
 12 13  1  0
 12 17  2  0
 14 21  1  0
 15 22  2  0
 16 19  2  0
 17 19  1  0
 20 21  2  0
 20 22  1  0
 23 26  2  0
 23 27  1  0
 26 28  1  0
 27 29  2  0
 28 30  2  0
 29 30  1  0
  6 31  1  0
  9 32  1  0
 11 33  1  0
 13 34  1  0
 14 35  1  0
 15 36  1  0
 16 37  1  0
 17 38  1  0
 19 39  1  0
 21 40  1  0
 22 41  1  0
 24 42  1  0
 24 43  1  0
 24 44  1  0
 25 45  1  0
 25 46  1  0
 25 47  1  0
 26 48  1  0
 27 49  1  0
 28 50  1  0
 29 51  1  0
 30 52  1  0
M  END
> <Name>
10,342,051

> <OBJECTID>
9223372075512823819

> <ActiveAidCount>
14

> <AtomChiralCount>
2

> <AtomChiralDefCount>
2

> <AtomChiralUndefCount>
0

> <BondChiralCount>
0

> <BondChiralDefCount>
0

> <BondChiralUndefCount>
0

> <CID>
10342051

> <CanonicalSmiles>
CC(C)C(C1=CC=C(C=C1)Cl)C(=O)OC(C#N)C2=CC(=CC=C2)OC3=CC=CC=C3

> <Complexity>
586

> <CovalentUnitCount>
1

> <CreateDate>
2006/10/25 00:00

> <HeavyAtomCount>
30

> <HydrogenBondAcceptorCount>
4

> <HydrogenBondDonorCount>
0

> <IUPACName>
[(S)-cyano-(3-phenoxyphenyl)methyl] (2S)-2-(4-chlorophenyl)-3-methylbutanoate

> <InChI>
InChI=1S/C25H22ClNO3/c1-17(2)24(18-11-13-20(26)14-12-18)25(28)30-23(16-27)19-7-6-10-22(15-19)29-21-8-4-3-5-9-21/h3-15,17,23-24H,1-2H3/t23-,24+/m1/s1

> <InChIKey>
NYPJDWWKZLNGGM-RPWUZVMVSA-N

> <IsomericSmiles>
CC(C)[C@@H](C1=CC=C(C=C1)Cl)C(=O)O[C@H](C#N)C2=CC(=CC=C2)OC3=CC=CC=C3

> <IsotopeAtomCount>
0

> <MeSHHeading>
fenvalerate

> <MeSHTerm>
pydrin, (S-(R*,R*))-isomer
alpha-cyano-3-phenoxybenzyl 2-(4-chlorophenyl)-3- methylbutyrate
pydrin, (R-(R*,R*))-isomer
alpha-cyano-3-phenoxybenzyl alpha-isopropyl-4-chlorophenyl acetate
WL 43775
pydrin, (R-(R*,S*))-isomer
Pydrin
S-5602
fenvalarate
fenvalerate
Belmark
pydrin, (S-(R*,S*))-isomer
Sumi-alpha
Sumicidin
esfenvalerate

> <MolecularFormula>
C25H22ClNO3

> <MolecularWeight>
419.9

> <PharmAction>
Pesticides
Toxic Actions
Agrochemicals
Enzyme Inhibitors
Molecular Mechanisms of Pharmacological Action
Specialty Uses of Chemicals
Chemical Actions and Uses
Pharmacologic Actions
Insecticides

> <RotatableBondCount>
8

> <Smiles>
Clc(ccc1[C@H](C(C)C)C(=O)O[C@H](C#N)c2cccc(c2)Oc3ccccc3)cc1

> <SourceCategory>
Legacy Depositors
Chemical Vendors
Curation Efforts
NIH Initiatives
Subscription Services
Journal Publishers
Governmental Organizations
Research and Development

> <Synonym>
ESFENVALERATE
66230-04-4
Fenvalerate (S,S)-isomer
Sumi-alpha
UNII-7F07OXM0PP
Asana
7F07OXM0PP
Halmark
Sumi-alfa
A alpha
Fenvalerate alpha
CHEBI:39346
Sumiciclin Aalpha
Asana XL
Sumicidin A alpha
Fenvalerate A alpha
S-5620A alpha
S 5602 A alpha
(S)-cyano(3-phenoxyphenyl)methyl (2S)-2-(4-chlorophenyl)-3-methylbutanoate
HSDB 6625
OMS 3023
BRN 4275674
Esfenvalerate [ISO]
S 1844
S-1844
(S)-alpha-Cyano-3-phenoxybenzyl (S)-2-(4-chlorophenyl)-3-methylbutyrate
(S)-alpha-Cyano-3-phenoxybenzyl(S)-2-(4-chlorophenyl)-3-methylbutyrate
[(S)-cyano-(3-phenoxyphenyl)methyl] (2S)-2-(4-chlorophenyl)-3-methylbutanoate
(S-(R*,R*))-Cyano(3-phenoxyphenyl)methyl 4-chloro-2-(1-methylethyl)benzeneacetate
SS/RR-Fenvalerate
(S,S)-Fenvalerate
DSSTox_CID_12667
DSSTox_RID_79029
DSSTox_GSID_32667
SCHEMBL26507
CHEMBL1891190
DTXSID4032667
NIOSH/CY1576370
NYPJDWWKZLNGGM-RPWUZVMVSA-N
Benzeneacetic acid, 4-chloro-alpha-(1-methylethyl)-, cyano(3-phenoxyphenyl)methyl ester, (S-(R*,R*))-
ZINC1532099
Tox21_300785
AKOS025310580
VA10841
NCGC00163956-01
NCGC00163956-02
NCGC00163956-03
NCGC00254689-01
AJ-26750
CC-27526
CJ-24134
M378
Esfenvalerate 10 microg/mL in Cyclohexane
CAS-66230-04-4
531-EP2274983A1
531-EP2275422A1
531-EP2308857A1
531-EP2308858A1
531-EP2311816A1
531-EP2311817A1
CY15763700
Esfenvalerate 100 microg/mL in Acetonitrile
FT-0630761
C18147
Esfenvalerate, PESTANAL(R), analytical standard
230E044
A835377
C-22056
UNII-Z6MXZ39302 component NYPJDWWKZLNGGM-RPWUZVMVSA-N
cyano-3-phenoxybenzyl (s)-2-(4-chlorophenyl)-3-methylbutyrate
(2S)-2-(4-chlorophenyl)-3-methylbutanoic acid [(S)-cyano-(3-phenoxyphenyl)methyl] ester
(S)-((S)-cyano(3-phenoxyphenyl)methyl) 2-(4-chlorophenyl)-3-methylbutanoate
[(S)-cyano-(3-phenoxyphenyl)methyl] (2S)-2-(4-chlorophenyl)-3-methyl-butanoate
Benzeneacetic acid, 4-chloro-alpha-(1-methylethyl)-, (S)-cyano(3-phenoxyphenyl)methyl ester, (alphaS)-
Benzeneacetic acid, 4-chloro-alpha-(1-methylethyl)-, cyano(3-phenoxyphenyl)methyl ester, (S,S)-

> <TPSA>
59.3

> <TotalAidCount>
244

> <TotalFormalCharge>
0

> <XLogP>
6.2

> <database>
PubChem Compound

> <matchingCount>
176

> <primaryID>
10342051

> <queryTranslation>
7628[CompoundID] OR 244[CompoundID] OR 25059[CompoundID] OR 7618[CompoundID] OR 7641[CompoundID] OR 5053[CompoundID] OR 637511[CompoundID] OR 7714[CompoundID] OR 7762[CompoundID] OR 25429[CompoundID]
OR 8842[CompoundID] OR 7794[CompoundID] OR 637566[CompoundID] OR 7843[CompoundID] OR 174[CompoundID] OR 7870[CompoundID] OR 86102[CompoundID] OR 7888[CompoundID] OR 7896[CompoundID] OR 1140[CompoundID
] OR 8042[CompoundID] OR 8058[CompoundID] OR 8078[CompoundID] OR 8087[CompoundID] OR 8117[CompoundID] OR 8133[CompoundID] OR 115224[CompoundID] OR 8175[CompoundID] OR 8194[CompoundID] OR 445639[Compou
ndID] OR 4944[CompoundID] OR 8294[CompoundID] OR 93541[CompoundID] OR 8360[CompoundID] OR 8363[CompoundID] OR 656612[CompoundID] OR 125098[CompoundID] OR 3352[CompoundID] OR 3303913[CompoundID] OR 648
05[CompoundID] OR 31200[CompoundID] OR 1712058[CompoundID] OR 31236[CompoundID] OR 31239[CompoundID] OR 31265[CompoundID] OR 31266[CompoundID] OR 31276[CompoundID] OR 6950273[CompoundID] OR 518659[Com
poundID] OR 14896[CompoundID] OR 14798[CompoundID] OR 14829[CompoundID] OR 14830[CompoundID] OR 8635[CompoundID] OR 23266[CompoundID] OR 4284[CompoundID] OR 8693[CompoundID] OR 22311[CompoundID] OR 87
59[CompoundID] OR 8785[CompoundID] OR 2723810[CompoundID] OR 8857[CompoundID] OR 3893[CompoundID] OR 9936739[CompoundID] OR 516892[CompoundID] OR 5430[CompoundID] OR 9017[CompoundID] OR 15433[Compound
ID] OR 107720[CompoundID] OR 9552081[CompoundID] OR 164825[CompoundID] OR 10275455[CompoundID] OR 16666[CompoundID] OR 9839306[CompoundID] OR 5282227[CompoundID] OR 23676745[CompoundID] OR 32881[Compo
undID] OR 91581[CompoundID] OR 39800[CompoundID] OR 33344[CompoundID] OR 15962220[CompoundID] OR 33528[CompoundID] OR 5365075[CompoundID] OR 62829[CompoundID] OR 162381[CompoundID] OR 517202[CompoundI
D] OR 6433353[CompoundID] OR 2730[CompoundID] OR 5372405[CompoundID] OR 36081[CompoundID] OR 3120[CompoundID] OR 3017[CompoundID] OR 2969[CompoundID] OR 18827[CompoundID] OR 19518[CompoundID] OR 19658
[CompoundID] OR 38283[CompoundID] OR 2758[CompoundID] OR 10112[CompoundID] OR 10340[CompoundID] OR 712[CompoundID] OR 5794[CompoundID] OR 3347[CompoundID] OR 104150[CompoundID] OR 2912[CompoundID] OR
2450[CompoundID] OR 40326[CompoundID] OR 40585[CompoundID] OR 517055[CompoundID] OR 10913[CompoundID] OR 108242[CompoundID] OR 62097[CompoundID] OR 41679[CompoundID] OR 54680676[CompoundID] OR 62118[C
ompoundID] OR 753[CompoundID] OR 1030[CompoundID] OR 23673837[CompoundID] OR 54678504[CompoundID] OR 11442[CompoundID] OR 11463[CompoundID] OR 22230[CompoundID] OR 440917[CompoundID] OR 6054[CompoundI
D] OR 43234[CompoundID] OR 22629[CompoundID] OR 3039[CompoundID] OR 2735067[CompoundID] OR 6144[CompoundID] OR 702[CompoundID] OR 284[CompoundID] OR 176[CompoundID] OR 91688[CompoundID] OR 22947[Compo
undID] OR 47445[CompoundID] OR 1711973[CompoundID] OR 243[CompoundID] OR 10342051[CompoundID] OR 5281875[CompoundID] OR 3776[CompoundID] OR 6224[CompoundID] OR 104926[CompoundID] OR 8755[CompoundID] O
R 338[CompoundID] OR 123622[CompoundID] OR 23954[CompoundID] OR 6334[CompoundID] OR 2537[CompoundID] OR 24261[CompoundID] OR 23665760[CompoundID] OR 83975[CompoundID] OR 784[CompoundID] OR 24437[Compo
undID] OR 5360315[CompoundID] OR 311[CompoundID] OR 6549[CompoundID] OR 107689[CompoundID] OR 17100[CompoundID] OR 24976875[CompoundID] OR 6654[CompoundID] OR 71245[CompoundID] OR 6442842[CompoundID]
OR 62334[CompoundID] OR 54698175[CompoundID] OR 6328154[CompoundID] OR 24762[CompoundID] OR 440950[CompoundID] OR 7017[CompoundID] OR 5281873[CompoundID] OR 323[CompoundID] OR 5281167[CompoundID] OR 7
175[CompoundID] OR 7292[CompoundID] OR 6335613[CompoundID] OR 7456[CompoundID] OR 7462[CompoundID]

> <resultIndex>
9

> <resultRange>
1-176

> <textQuery>
7628,244,25059,7618,7641,5053,637511,7714,7762,25429,8842,7794,637566,7843,174,7870,86102,7888,7896,1140,8042,8058,8078,8087,8117,8133,115224,8175,8194,445639,4944,8294,93541,8360,8363,656612,125098,3
352,3303913,64805,31200,1712058,31236,31239,31265,31266,31276,6950273,518659,14896,14798,14829,14830,8635,23266,4284,8693,22311,8759,8785,2723810,8857,3893,9936739,516892,5430,9017,15433,107720,955208
1,164825,10275455,16666,9839306,5282227,23676745,32881,91581,39800,33344,15962220,33528,5365075,62829,162381,517202,6433353,2730,5372405,36081,3120,3017,2969,18827,19518,19658,38283,2758,10112,10340,7
12,5794,3347,104150,2912,2450,40326,40585,517055,10913,108242,62097,41679,54680676,62118,753,1030,23673837,54678504,11442,11463,22230,440917,6054,43234,22629,3039,2735067,6144,702,284,176,91688,22947,
47445,1711973,243,10342051,5281875,3776,6224,104926,8755,338,123622,23954,6334,2537,24261,23665760,83975,784,24437,5360315,311,6549,107689,17100,24976875,6654,71245,6442842,62334,54698175,6328154,2476
2,440950,7017,5281873,323,5281167,7175,7292,6335613,7456,7462

$$$$
10,275,455
  SciTegic10191915303D

 36 37  0  0  0  0            999 V2000
   -1.5550    3.7910    0.2600 C   0  0
    1.1580   -2.0020   -1.4300 C   0  0
    0.3360   -1.5570   -0.4360 N   0  0
   -2.1330    4.7290   -0.7440 C   0  0
    1.3220   -3.4790   -1.6210 C   0  0
    0.1660   -0.2150   -0.2400 C   0  0
   -0.8400    1.5630    0.9690 C   0  0
   -0.1990    4.0220    3.7970 C   0  0
   -1.3980    2.4140   -0.0200 C   0  0
   -0.6110    3.4650    2.4800 C   0  0
   -1.1640    4.3090    1.5060 C   0  0
   -0.6600    0.2170    0.7600 N   0  0
   -0.4490    2.0980    2.2130 C   0  0
    1.7400   -1.2170   -2.1410 O   0  0
    2.6020   -4.0230   -1.8520 C   0  0
    0.1970   -4.3280   -1.5680 C   0  0
    0.7420    0.5820   -0.9410 O   0  0
   -3.4000    4.3240   -1.0720 F   0  0
   -1.3500    4.7330   -1.8710 F   0  0
   -2.1780    5.9940   -0.2170 F   0  0
    1.1410    3.8050    3.9840 F   0  0
   -0.9060    3.4040    4.7950 F   0  0
   -0.4530    5.3690    3.8220 F   0  0
   -1.8940    1.8030   -1.5630 Cl  0  0
   -1.0190   -3.8320   -1.3540 F   0  0
    3.6760   -3.2380   -1.9020 F   0  0
    1.6310   -6.2540   -1.9790 C   0  0
    2.7520   -5.4100   -2.0310 C   0  0
    0.3560   -5.7130   -1.7460 C   0  0
   -0.1420   -2.2150    0.1460 H   0  0
   -1.2870    5.3610    1.7150 H   0  0
   -1.1330   -0.4470    1.3380 H   0  0
   -0.0210    1.4610    2.9750 H   0  0
    1.7480   -7.3180   -2.1150 H   0  0
    3.7310   -5.8300   -2.2110 H   0  0
   -0.5060   -6.3650   -1.7050 H   0  0
  1  4  1  0
  1  9  2  0
  1 11  1  0
  2  3  1  0
  2  5  1  0
  2 14  2  0
  3  6  1  0
  4 18  1  0
  4 19  1  0
  4 20  1  0
  5 15  2  0
  5 16  1  0
  6 12  1  0
  6 17  2  0
  7  9  1  0
  7 12  1  0
  7 13  2  0
  8 10  1  0
  8 21  1  0
  8 22  1  0
  8 23  1  0
  9 24  1  0
 10 11  2  0
 10 13  1  0
 15 26  1  0
 15 28  1  0
 16 25  1  0
 16 29  2  0
 27 28  2  0
 27 29  1  0
  3 30  1  0
 11 31  1  0
 12 32  1  0
 13 33  1  0
 27 34  1  0
 28 35  1  0
 29 36  1  0
M  END
> <Name>
10,275,455

> <OBJECTID>
9223372079807791115

> <ActiveAidCount>
0

> <AtomChiralCount>
0

> <AtomChiralDefCount>
0

> <AtomChiralUndefCount>
0

> <BondChiralCount>
0

> <BondChiralDefCount>
0

> <BondChiralUndefCount>
0

> <CID>
10275455

> <CanonicalSmiles>
C1=CC(=C(C(=C1)F)C(=O)NC(=O)NC2=CC(=CC(=C2Cl)C(F)(F)F)C(F)(F)F)F

> <Complexity>
605

> <CovalentUnitCount>
1

> <CreateDate>
2006/10/25 00:00

> <HeavyAtomCount>
29

> <HydrogenBondAcceptorCount>
10

> <HydrogenBondDonorCount>
2

> <IUPACName>
N-[[2-chloro-3,5-bis(trifluoromethyl)phenyl]carbamoyl]-2,6-difluorobenzamide

> <InChI>
InChI=1S/C16H7ClF8N2O2/c17-12-7(16(23,24)25)4-6(15(20,21)22)5-10(12)26-14(29)27-13(28)11-8(18)2-1-3-9(11)19/h1-5H,(H2,26,27,28,29)

> <InChIKey>
YNKFZRGTXAPYFD-UHFFFAOYSA-N

> <IsomericSmiles>
C1=CC(=C(C(=C1)F)C(=O)NC(=O)NC2=CC(=CC(=C2Cl)C(F)(F)F)C(F)(F)F)F

> <IsotopeAtomCount>
0

> <MeSHHeading>
bistrifluron

> <MeSHTerm>
bistrifluron
N-(2,6-difluorobenzoyl)-N'-(2-cloro-bis(3,5-trifluoromethyl)pheny)urea

> <MolecularFormula>
C16H7ClF8N2O2

> <MolecularWeight>
446.68

> <RotatableBondCount>
2

> <Smiles>
c1(cc(cc(NC(=O)NC(=O)c2c(cccc2F)F)c1Cl)C(F)(F)F)C(F)(F)F

> <SourceCategory>
Research and Development
Curation Efforts
Chemical Vendors
Governmental Organizations
Subscription Services
Journal Publishers
Legacy Depositors

> <Synonym>
Bistrifluron
UNII-0806M8CX7O
201593-84-2
0806M8CX7O
Bistrifluron [ISO]
SCHEMBL65405
DTXSID0058013
Bistrifluron, analytical standard
YNKFZRGTXAPYFD-UHFFFAOYSA-N
MFCD22581210
ZINC43058489
1-[2-chloro-3,5-bis(trifluoromethyl)phenyl]-3-(2,6-difluorobenzovl)urea
1-[2-Chloro-3,5-bis(trifluoromethyl)phenyl]-3-(2,6-difluorobenzoyl)urea
N-{[2-chloro-3,5-bis(trifluoromethyl)phenyl]carbamoyl}-2,6-difluorobenzamide

> <TPSA>
58.2

> <TotalAidCount>
0

> <TotalFormalCharge>
0

> <XLogP>
5.5

> <database>
PubChem Compound

> <matchingCount>
176

> <primaryID>
10275455

> <queryTranslation>
7628[CompoundID] OR 244[CompoundID] OR 25059[CompoundID] OR 7618[CompoundID] OR 7641[CompoundID] OR 5053[CompoundID] OR 637511[CompoundID] OR 7714[CompoundID] OR 7762[CompoundID] OR 25429[CompoundID]
OR 8842[CompoundID] OR 7794[CompoundID] OR 637566[CompoundID] OR 7843[CompoundID] OR 174[CompoundID] OR 7870[CompoundID] OR 86102[CompoundID] OR 7888[CompoundID] OR 7896[CompoundID] OR 1140[CompoundID
] OR 8042[CompoundID] OR 8058[CompoundID] OR 8078[CompoundID] OR 8087[CompoundID] OR 8117[CompoundID] OR 8133[CompoundID] OR 115224[CompoundID] OR 8175[CompoundID] OR 8194[CompoundID] OR 445639[Compou
ndID] OR 4944[CompoundID] OR 8294[CompoundID] OR 93541[CompoundID] OR 8360[CompoundID] OR 8363[CompoundID] OR 656612[CompoundID] OR 125098[CompoundID] OR 3352[CompoundID] OR 3303913[CompoundID] OR 648
05[CompoundID] OR 31200[CompoundID] OR 1712058[CompoundID] OR 31236[CompoundID] OR 31239[CompoundID] OR 31265[CompoundID] OR 31266[CompoundID] OR 31276[CompoundID] OR 6950273[CompoundID] OR 518659[Com
poundID] OR 14896[CompoundID] OR 14798[CompoundID] OR 14829[CompoundID] OR 14830[CompoundID] OR 8635[CompoundID] OR 23266[CompoundID] OR 4284[CompoundID] OR 8693[CompoundID] OR 22311[CompoundID] OR 87
59[CompoundID] OR 8785[CompoundID] OR 2723810[CompoundID] OR 8857[CompoundID] OR 3893[CompoundID] OR 9936739[CompoundID] OR 516892[CompoundID] OR 5430[CompoundID] OR 9017[CompoundID] OR 15433[Compound
ID] OR 107720[CompoundID] OR 9552081[CompoundID] OR 164825[CompoundID] OR 10275455[CompoundID] OR 16666[CompoundID] OR 9839306[CompoundID] OR 5282227[CompoundID] OR 23676745[CompoundID] OR 32881[Compo
undID] OR 91581[CompoundID] OR 39800[CompoundID] OR 33344[CompoundID] OR 15962220[CompoundID] OR 33528[CompoundID] OR 5365075[CompoundID] OR 62829[CompoundID] OR 162381[CompoundID] OR 517202[CompoundI
D] OR 6433353[CompoundID] OR 2730[CompoundID] OR 5372405[CompoundID] OR 36081[CompoundID] OR 3120[CompoundID] OR 3017[CompoundID] OR 2969[CompoundID] OR 18827[CompoundID] OR 19518[CompoundID] OR 19658
[CompoundID] OR 38283[CompoundID] OR 2758[CompoundID] OR 10112[CompoundID] OR 10340[CompoundID] OR 712[CompoundID] OR 5794[CompoundID] OR 3347[CompoundID] OR 104150[CompoundID] OR 2912[CompoundID] OR
2450[CompoundID] OR 40326[CompoundID] OR 40585[CompoundID] OR 517055[CompoundID] OR 10913[CompoundID] OR 108242[CompoundID] OR 62097[CompoundID] OR 41679[CompoundID] OR 54680676[CompoundID] OR 62118[C
ompoundID] OR 753[CompoundID] OR 1030[CompoundID] OR 23673837[CompoundID] OR 54678504[CompoundID] OR 11442[CompoundID] OR 11463[CompoundID] OR 22230[CompoundID] OR 440917[CompoundID] OR 6054[CompoundI
D] OR 43234[CompoundID] OR 22629[CompoundID] OR 3039[CompoundID] OR 2735067[CompoundID] OR 6144[CompoundID] OR 702[CompoundID] OR 284[CompoundID] OR 176[CompoundID] OR 91688[CompoundID] OR 22947[Compo
undID] OR 47445[CompoundID] OR 1711973[CompoundID] OR 243[CompoundID] OR 10342051[CompoundID] OR 5281875[CompoundID] OR 3776[CompoundID] OR 6224[CompoundID] OR 104926[CompoundID] OR 8755[CompoundID] O
R 338[CompoundID] OR 123622[CompoundID] OR 23954[CompoundID] OR 6334[CompoundID] OR 2537[CompoundID] OR 24261[CompoundID] OR 23665760[CompoundID] OR 83975[CompoundID] OR 784[CompoundID] OR 24437[Compo
undID] OR 5360315[CompoundID] OR 311[CompoundID] OR 6549[CompoundID] OR 107689[CompoundID] OR 17100[CompoundID] OR 24976875[CompoundID] OR 6654[CompoundID] OR 71245[CompoundID] OR 6442842[CompoundID]
OR 62334[CompoundID] OR 54698175[CompoundID] OR 6328154[CompoundID] OR 24762[CompoundID] OR 440950[CompoundID] OR 7017[CompoundID] OR 5281873[CompoundID] OR 323[CompoundID] OR 5281167[CompoundID] OR 7
175[CompoundID] OR 7292[CompoundID] OR 6335613[CompoundID] OR 7456[CompoundID] OR 7462[CompoundID]

> <resultIndex>
10

> <resultRange>
1-176

> <textQuery>
7628,244,25059,7618,7641,5053,637511,7714,7762,25429,8842,7794,637566,7843,174,7870,86102,7888,7896,1140,8042,8058,8078,8087,8117,8133,115224,8175,8194,445639,4944,8294,93541,8360,8363,656612,125098,3
352,3303913,64805,31200,1712058,31236,31239,31265,31266,31276,6950273,518659,14896,14798,14829,14830,8635,23266,4284,8693,22311,8759,8785,2723810,8857,3893,9936739,516892,5430,9017,15433,107720,955208
1,164825,10275455,16666,9839306,5282227,23676745,32881,91581,39800,33344,15962220,33528,5365075,62829,162381,517202,6433353,2730,5372405,36081,3120,3017,2969,18827,19518,19658,38283,2758,10112,10340,7
12,5794,3347,104150,2912,2450,40326,40585,517055,10913,108242,62097,41679,54680676,62118,753,1030,23673837,54678504,11442,11463,22230,440917,6054,43234,22629,3039,2735067,6144,702,284,176,91688,22947,
47445,1711973,243,10342051,5281875,3776,6224,104926,8755,338,123622,23954,6334,2537,24261,23665760,83975,784,24437,5360315,311,6549,107689,17100,24976875,6654,71245,6442842,62334,54698175,6328154,2476
2,440950,7017,5281873,323,5281167,7175,7292,6335613,7456,7462

$$$$
9,936,739
  SciTegic10191915303D

 53 56  0  0  1  0            999 V2000
   -2.4690    4.8730    2.5840 C   0  0
   -1.9650    3.6130    2.1680 O   0  0
   -2.4340    3.2500    0.9770 C   0  0
   -3.2170    3.9060    0.3320 O   0  0
   -1.9730    2.0570    0.4960 N   0  0
   -2.4300    1.5800   -0.6990 C   0  0
   -3.5250    1.8970   -1.1030 O   0  0
   -1.6390    0.7400   -1.4340 N   0  0
   -2.2700   -0.1130   -2.5140 C   0  0
   -1.3070   -0.6740   -3.4220 O   0  0
   -0.1740   -1.2150   -2.7520 C   0  0  3  0  0  0
    1.0530   -1.5640   -3.6660 C   0  0
    2.2400   -1.0800   -2.8440 C   0  0
    1.7910   -0.2460   -1.8110 C   0  0
    2.6970    0.3810   -0.9200 C   0  0
    4.0840    0.1430   -1.0490 C   0  0
    4.5570   -0.7170   -2.0680 C   0  0
    6.2350   -1.0270   -2.2270 Cl  0  0
    3.6350   -1.3180   -2.9610 C   0  0
    0.3400   -0.1250   -1.8110 C   0  0
   -0.4180    0.7270   -1.2030 N   0  0
   -0.5900   -2.4320   -1.9510 C   0  0
   -0.6870   -3.5180   -2.4770 O   0  0
   -0.8320   -2.2090   -0.6640 O   0  0
   -1.2910   -3.3710    0.0100 C   0  0
   -1.0530    1.3380    1.2130 C   0  0
    0.1350    1.9530    1.6540 C   0  0
    1.0760    1.2150    2.3890 C   0  0
    0.8400   -0.1390    2.6880 C   0  0
    1.7250   -0.8300    3.3770 O   0  0
    1.2560   -1.9060    4.1740 C   0  0
    2.1900   -2.2050    5.1350 F   0  0
    1.0470   -3.0060    3.3830 F   0  0
    0.0780   -1.5490    4.7770 F   0  0
   -0.3460   -0.7520    2.2460 C   0  0
   -1.2910   -0.0180    1.5100 C   0  0
   -2.1020    5.0720    3.5920 H   0  0
   -2.2110    5.6110    1.8240 H   0  0
   -3.5550    4.8110    2.6310 H   0  0
   -2.8240   -0.9280   -2.0430 H   0  0
   -2.9820    0.4730   -3.0960 H   0  0
    1.1310   -2.6190   -3.8950 H   0  0
    1.0290   -1.0200   -4.6000 H   0  0
    2.3360    1.0390   -0.1430 H   0  0
    4.7720    0.6190   -0.3650 H   0  0
    3.9840   -1.9710   -3.7480 H   0  0
   -1.5330   -3.2600    1.0660 H   0  0
   -0.5230   -4.1410   -0.0760 H   0  0
   -2.1840   -3.7300   -0.5000 H   0  0
    0.3360    2.9920    1.4360 H   0  0
    1.9860    1.6900    2.7270 H   0  0
   -0.5330   -1.7910    2.4710 H   0  0
   -2.1970   -0.5080    1.1800 H   0  0
  1  2  1  0
  2  3  1  0
  3  4  2  0
  3  5  1  0
  5  6  1  0
  6  7  2  0
  6  8  1  0
  8  9  1  0
  9 10  1  0
 10 11  1  0
 11 12  1  0
 12 13  1  0
 13 14  2  0
 14 15  1  0
 15 16  2  0
 16 17  1  0
 17 18  1  0
 17 19  2  0
 13 19  1  0
 14 20  1  0
 11 20  1  0
 20 21  2  0
  8 21  1  0
 11 22  1  0
 22 23  2  0
 22 24  1  0
 24 25  1  0
  5 26  1  0
 26 27  2  0
 27 28  1  0
 28 29  2  0
 29 30  1  0
 30 31  1  0
 31 32  1  0
 31 33  1  0
 31 34  1  0
 29 35  1  0
 35 36  2  0
 26 36  1  0
  1 37  1  0
  1 38  1  0
  1 39  1  0
  9 40  1  0
  9 41  1  0
 12 42  1  0
 12 43  1  0
 15 44  1  0
 16 45  1  0
 19 46  1  0
 25 47  1  0
 25 48  1  0
 25 49  1  0
 27 50  1  0
 28 51  1  0
 35 52  1  0
 36 53  1  0
M  END
> <Name>
9,936,739

> <OBJECTID>
9223372084102758411

> <ActiveAidCount>
15

> <AtomChiralCount>
1

> <AtomChiralDefCount>
0

> <AtomChiralUndefCount>
1

> <BondChiralCount>
0

> <BondChiralDefCount>
0

> <BondChiralUndefCount>
0

> <CID>
9936739

> <CanonicalSmiles>
COC(=O)C12CC3=C(C1=NN(CO2)C(=O)N(C4=CC=C(C=C4)OC(F)(F)F)C(=O)OC)C=CC(=C3)Cl

> <Complexity>
912

> <CovalentUnitCount>
1

> <CreateDate>
2006/10/25 00:00

> <HeavyAtomCount>
36

> <HydrogenBondAcceptorCount>
11

> <HydrogenBondDonorCount>
0

> <IUPACName>
methyl 7-chloro-2-[methoxycarbonyl-[4-(trifluoromethoxy)phenyl]carbamoyl]-3,5-dihydroindeno[1,2-e][1,3,4]oxadiazine-4a-carboxylate

> <InChI>
InChI=1S/C22H17ClF3N3O7/c1-33-18(30)21-10-12-9-13(23)3-8-16(12)17(21)27-28(11-35-21)19(31)29(20(32)34-2)14-4-6-15(7-5-14)36-22(24,25)26/h3-9H,10-11H2,1-2H3

> <InChIKey>
VBCVPMMZEGZULK-UHFFFAOYSA-N

> <IsomericSmiles>
COC(=O)C12CC3=C(C1=NN(CO2)C(=O)N(C4=CC=C(C=C4)OC(F)(F)F)C(=O)OC)C=CC(=C3)Cl

> <IsotopeAtomCount>
0

> <MolecularFormula>
C22H17ClF3N3O7

> <MolecularWeight>
527.8

> <RotatableBondCount>
5

> <Smiles>
COC(N(c1ccc(OC(F)(F)F)cc1)C(N2N=C(C3(C(OC)=O)OC2)c4c(cc(Cl)cc4)C3)=O)=O

> <SourceCategory>
Legacy Depositors
Chemical Vendors
Curation Efforts
Governmental Organizations
Subscription Services
Research and Development
NIH Initiatives
Journal Publishers

> <Synonym>
144171-61-9
Indeno[1,2-e][1,3,4]oxadiazine-4a(3H)-carboxylic acid, 7-chloro-2,5-dihydro-2-[[(methoxycarbonyl)[4-(trifluoromethoxy)phenyl]amino]carbonyl]-, methyl ester
(+-)-Indoxacarb
Indoxacarb, (+/-)-
Indeno(1,2-e)(1,3,4)oxadiazine-4a(3H)-carboxylic acid, 7-chloro-2,5-dihydro-2-(((methoxycarbonyl)(4-(trifluoromethoxy)phenyl)amino)carbonyl)-, methyl ester
methyl 7-chloro-2-[methoxycarbonyl-[4-(trifluoromethoxy)phenyl]carbamoyl]-3,5-dihydroindeno[1,2-e][1,3,4]oxadiazine-4a-carboxylate
(+/-)-Indoxacarb
DSSTox_CID_20801
DSSTox_GSID_40801
SCHEMBL22074
DPX-MP-062
CHEMBL1902546
DTXSID3040801
CTK8E8690
VBCVPMMZEGZULK-UHFFFAOYSA-N
Tox21_303872
AKOS015895562
TRA0066127
Indoxacarb 10 microg/mL in Cyclohexane
NCGC00164264-01
NCGC00357134-01
AN-31535
RT-013341
CAS-144171-61-9
FT-0659019
A808186
I06-1080
J-007927
7-chloro-2-[[N-methoxycarbonyl-4-(trifluoromethoxy)anilino]-oxomethyl]-3,5-dihydroindeno[1,2-e][1,3,4]oxadiazine-4a-carboxylic acid methyl ester
methyl 7-chloranyl-2-[methoxycarbonyl-[4-(trifluoromethyloxy)phenyl]carbamoyl]-3,5-dihydroindeno[1,2-e][1,3,4]oxadiazine-4a-carboxylate

> <TPSA>
107

> <TotalAidCount>
149

> <TotalFormalCharge>
0

> <XLogP>
4.8

> <database>
PubChem Compound

> <matchingCount>
176

> <primaryID>
9936739

> <queryTranslation>
7628[CompoundID] OR 244[CompoundID] OR 25059[CompoundID] OR 7618[CompoundID] OR 7641[CompoundID] OR 5053[CompoundID] OR 637511[CompoundID] OR 7714[CompoundID] OR 7762[CompoundID] OR 25429[CompoundID]
OR 8842[CompoundID] OR 7794[CompoundID] OR 637566[CompoundID] OR 7843[CompoundID] OR 174[CompoundID] OR 7870[CompoundID] OR 86102[CompoundID] OR 7888[CompoundID] OR 7896[CompoundID] OR 1140[CompoundID
] OR 8042[CompoundID] OR 8058[CompoundID] OR 8078[CompoundID] OR 8087[CompoundID] OR 8117[CompoundID] OR 8133[CompoundID] OR 115224[CompoundID] OR 8175[CompoundID] OR 8194[CompoundID] OR 445639[Compou
ndID] OR 4944[CompoundID] OR 8294[CompoundID] OR 93541[CompoundID] OR 8360[CompoundID] OR 8363[CompoundID] OR 656612[CompoundID] OR 125098[CompoundID] OR 3352[CompoundID] OR 3303913[CompoundID] OR 648
05[CompoundID] OR 31200[CompoundID] OR 1712058[CompoundID] OR 31236[CompoundID] OR 31239[CompoundID] OR 31265[CompoundID] OR 31266[CompoundID] OR 31276[CompoundID] OR 6950273[CompoundID] OR 518659[Com
poundID] OR 14896[CompoundID] OR 14798[CompoundID] OR 14829[CompoundID] OR 14830[CompoundID] OR 8635[CompoundID] OR 23266[CompoundID] OR 4284[CompoundID] OR 8693[CompoundID] OR 22311[CompoundID] OR 87
59[CompoundID] OR 8785[CompoundID] OR 2723810[CompoundID] OR 8857[CompoundID] OR 3893[CompoundID] OR 9936739[CompoundID] OR 516892[CompoundID] OR 5430[CompoundID] OR 9017[CompoundID] OR 15433[Compound
ID] OR 107720[CompoundID] OR 9552081[CompoundID] OR 164825[CompoundID] OR 10275455[CompoundID] OR 16666[CompoundID] OR 9839306[CompoundID] OR 5282227[CompoundID] OR 23676745[CompoundID] OR 32881[Compo
undID] OR 91581[CompoundID] OR 39800[CompoundID] OR 33344[CompoundID] OR 15962220[CompoundID] OR 33528[CompoundID] OR 5365075[CompoundID] OR 62829[CompoundID] OR 162381[CompoundID] OR 517202[CompoundI
D] OR 6433353[CompoundID] OR 2730[CompoundID] OR 5372405[CompoundID] OR 36081[CompoundID] OR 3120[CompoundID] OR 3017[CompoundID] OR 2969[CompoundID] OR 18827[CompoundID] OR 19518[CompoundID] OR 19658
[CompoundID] OR 38283[CompoundID] OR 2758[CompoundID] OR 10112[CompoundID] OR 10340[CompoundID] OR 712[CompoundID] OR 5794[CompoundID] OR 3347[CompoundID] OR 104150[CompoundID] OR 2912[CompoundID] OR
2450[CompoundID] OR 40326[CompoundID] OR 40585[CompoundID] OR 517055[CompoundID] OR 10913[CompoundID] OR 108242[CompoundID] OR 62097[CompoundID] OR 41679[CompoundID] OR 54680676[CompoundID] OR 62118[C
ompoundID] OR 753[CompoundID] OR 1030[CompoundID] OR 23673837[CompoundID] OR 54678504[CompoundID] OR 11442[CompoundID] OR 11463[CompoundID] OR 22230[CompoundID] OR 440917[CompoundID] OR 6054[CompoundI
D] OR 43234[CompoundID] OR 22629[CompoundID] OR 3039[CompoundID] OR 2735067[CompoundID] OR 6144[CompoundID] OR 702[CompoundID] OR 284[CompoundID] OR 176[CompoundID] OR 91688[CompoundID] OR 22947[Compo
undID] OR 47445[CompoundID] OR 1711973[CompoundID] OR 243[CompoundID] OR 10342051[CompoundID] OR 5281875[CompoundID] OR 3776[CompoundID] OR 6224[CompoundID] OR 104926[CompoundID] OR 8755[CompoundID] O
R 338[CompoundID] OR 123622[CompoundID] OR 23954[CompoundID] OR 6334[CompoundID] OR 2537[CompoundID] OR 24261[CompoundID] OR 23665760[CompoundID] OR 83975[CompoundID] OR 784[CompoundID] OR 24437[Compo
undID] OR 5360315[CompoundID] OR 311[CompoundID] OR 6549[CompoundID] OR 107689[CompoundID] OR 17100[CompoundID] OR 24976875[CompoundID] OR 6654[CompoundID] OR 71245[CompoundID] OR 6442842[CompoundID]
OR 62334[CompoundID] OR 54698175[CompoundID] OR 6328154[CompoundID] OR 24762[CompoundID] OR 440950[CompoundID] OR 7017[CompoundID] OR 5281873[CompoundID] OR 323[CompoundID] OR 5281167[CompoundID] OR 7
175[CompoundID] OR 7292[CompoundID] OR 6335613[CompoundID] OR 7456[CompoundID] OR 7462[CompoundID]

> <resultIndex>
11

> <resultRange>
1-176

> <textQuery>
7628,244,25059,7618,7641,5053,637511,7714,7762,25429,8842,7794,637566,7843,174,7870,86102,7888,7896,1140,8042,8058,8078,8087,8117,8133,115224,8175,8194,445639,4944,8294,93541,8360,8363,656612,125098,3
352,3303913,64805,31200,1712058,31236,31239,31265,31266,31276,6950273,518659,14896,14798,14829,14830,8635,23266,4284,8693,22311,8759,8785,2723810,8857,3893,9936739,516892,5430,9017,15433,107720,955208
1,164825,10275455,16666,9839306,5282227,23676745,32881,91581,39800,33344,15962220,33528,5365075,62829,162381,517202,6433353,2730,5372405,36081,3120,3017,2969,18827,19518,19658,38283,2758,10112,10340,7
12,5794,3347,104150,2912,2450,40326,40585,517055,10913,108242,62097,41679,54680676,62118,753,1030,23673837,54678504,11442,11463,22230,440917,6054,43234,22629,3039,2735067,6144,702,284,176,91688,22947,
47445,1711973,243,10342051,5281875,3776,6224,104926,8755,338,123622,23954,6334,2537,24261,23665760,83975,784,24437,5360315,311,6549,107689,17100,24976875,6654,71245,6442842,62334,54698175,6328154,2476
2,440950,7017,5281873,323,5281167,7175,7292,6335613,7456,7462

$$$$
9,839,306
  SciTegic10191915303D

 46 47  0  0  1  0            999 V2000
    1.2210   -0.9080   -0.6600 O   0  0
    0.1600    0.8570   -1.5430 O   0  0
    1.6740   -5.0000   -2.4840 O   0  0
    1.8500    2.1330    0.9160 C   0  0
    0.8440    1.0080    0.7340 C   0  0  3  0  0  0
    0.3600    2.4360    0.8870 C   0  0  3  0  0  0
    0.7030    0.3160   -0.6090 C   0  0
   -0.3650    2.8400    2.1580 C   0  0
    2.5860    2.2030    2.2500 C   0  0
    2.6760    2.5800   -0.2850 C   0  0
    1.0290   -1.5230   -1.9260 C   0  0  3  0  0  0
   -0.3060   -2.2270   -1.9670 C   0  0
   -0.1700   -3.5410   -2.1740 C   0  0
    1.2380   -3.8890   -2.2950 C   0  0
    2.0720   -2.6410   -2.1450 C   0  0
   -1.7070    2.8260    2.1990 C   0  0
   -1.3050   -4.5250   -2.2720 C   0  0
   -1.6170   -1.5040   -1.7910 C   0  0
   -2.3900    3.2420    3.4750 C   0  0
   -2.4590    2.3970    0.9690 C   0  0
   -1.6580   -4.9410   -0.9160 C   0  0
   -1.9450   -5.2810    0.1870 C   0  0
    0.6940    0.3500    1.5920 H   0  0
   -0.0190    2.9200   -0.0140 H   0  0
    0.2580    3.1290    2.9920 H   0  0
    2.0020    1.7660    3.0610 H   0  0
    2.8030    3.2360    2.5180 H   0  0
    3.5330    1.6660    2.1950 H   0  0
    2.0720    2.6540   -1.1900 H   0  0
    3.4850    1.8750   -0.4810 H   0  0
    3.1230    3.5570   -0.1020 H   0  0
    1.0840   -0.7660   -2.6950 H   0  0
    2.7500   -2.7400   -1.3090 H   0  0
    2.6550   -2.4710   -3.0390 H   0  0
   -0.9940   -5.3950   -2.8480 H   0  0
   -2.1680   -4.0510   -2.7420 H   0  0
   -2.4570   -2.1680   -1.5900 H   0  0
   -1.8510   -0.9360   -2.6910 H   0  0
   -1.5430   -0.7990   -0.9630 H   0  0
   -1.8140    3.9550    4.0640 H   0  0
   -2.5760    2.3670    4.0980 H   0  0
   -3.3530    3.7010    3.2460 H   0  0
   -2.3980    3.1740    0.2070 H   0  0
   -2.0640    1.4470    0.6050 H   0  0
   -3.5120    2.2500    1.2110 H   0  0
   -2.2010   -5.5800    1.1660 H   0  0
  1  7  1  0
  1 11  1  0
  2  7  2  0
  3 14  2  0
  4  5  1  0
  4  6  1  0
  4  9  1  0
  4 10  1  0
  5  6  1  0
  5  7  1  0
  6  8  1  0
  8 16  2  0
 11 12  1  0
 11 15  1  0
 12 13  2  0
 12 18  1  0
 13 14  1  0
 13 17  1  0
 14 15  1  0
 16 19  1  0
 16 20  1  0
 17 21  1  0
 21 22  3  0
  5 23  1  0
  6 24  1  0
  8 25  1  0
  9 26  1  0
  9 27  1  0
  9 28  1  0
 10 29  1  0
 10 30  1  0
 10 31  1  0
 11 32  1  0
 15 33  1  0
 15 34  1  0
 17 35  1  0
 17 36  1  0
 18 37  1  0
 18 38  1  0
 18 39  1  0
 19 40  1  0
 19 41  1  0
 19 42  1  0
 20 43  1  0
 20 44  1  0
 20 45  1  0
 22 46  1  0
M  END
> <Name>
9,839,306

> <OBJECTID>
9223372088397725707

> <ActiveAidCount>
0

> <AtomChiralCount>
3

> <AtomChiralDefCount>
0

> <AtomChiralUndefCount>
3

> <BondChiralCount>
0

> <BondChiralDefCount>
0

> <BondChiralUndefCount>
0

> <CID>
9839306

> <CanonicalSmiles>
CC1=C(C(=O)CC1OC(=O)C2C(C2(C)C)C=C(C)C)CC#C

> <Complexity>
620

> <CovalentUnitCount>
1

> <CreateDate>
2006/10/25 00:00

> <HeavyAtomCount>
22

> <HydrogenBondAcceptorCount>
3

> <HydrogenBondDonorCount>
0

> <IUPACName>
(2-methyl-4-oxo-3-prop-2-ynylcyclopent-2-en-1-yl) 2,2-dimethyl-3-(2-methylprop-1-enyl)cyclopropane-1-carboxylate

> <InChI>
InChI=1S/C19H24O3/c1-7-8-13-12(4)16(10-15(13)20)22-18(21)17-14(9-11(2)3)19(17,5)6/h1,9,14,16-17H,8,10H2,2-6H3

> <InChIKey>
SMKRKQBMYOFFMU-UHFFFAOYSA-N

> <IsomericSmiles>
CC1=C(C(=O)CC1OC(=O)C2C(C2(C)C)C=C(C)C)CC#C

> <IsotopeAtomCount>
0

> <MeSHHeading>
d,d-T80-prallethrin

> <MeSHTerm>
ETOC
2-methyl-4-oxo-3-(2-propynyl)cyclopent-2-enyl chrysanthemate
d,d-T80-prallethrin
prallethrin

> <MolecularFormula>
C19H24O3

> <MolecularWeight>
300.4

> <RotatableBondCount>
5

> <Smiles>
O(C1CC(C(CC#C)=C1C)=O)C(C2C(\C=C(/C)\C)C2(C)C)=O

> <SourceCategory>
Legacy Depositors
Chemical Vendors
Research and Development
Curation Efforts
Governmental Organizations
NIH Initiatives
Subscription Services
Journal Publishers

> <Synonym>
Prallethrin
23031-36-9
ETOC
d,d-T80-Prallethrin
D-Prallethrin
Cyclopropanecarboxylic acid, 2,2-dimethyl-3-(2-methyl-1-propenyl)-, 2-methyl-4-oxo-3-(2-propynyl)-2-cyclopenten-1-yl ester
Rethrinpropargyl
S 4068
2-methyl-4-oxo-3-prop-2-yn-1-ylcyclopent-2-en-1-yl 2,2-dimethyl-3-(2-methylprop-1-en-1-yl)cyclopropanecarboxylate
(2-methyl-4-oxo-3-prop-2-ynylcyclopent-2-en-1-yl) 2,2-dimethyl-3-(2-methylprop-1-enyl)cyclopropane-1-carboxylate
103065-19-6
Acetylene C Permethrin
SCHEMBL25223
DTXSID0032572
CHEBI:39391
CTK8G2552
SMKRKQBMYOFFMU-UHFFFAOYSA-N
S 4068SF
AKOS030255345
ACM23031369
Prallethrin 10 microg/mL in Cyclohexane
CC-33893
M366
Prallethrin 100 microg/mL in Acetonitrile
FT-0673989
C18510
Prallethrin, PESTANAL(R), analytical standard
C-23875
J-014952
(RS)-2-Methyl-4-oxo-3-prop-2-ynylcyclopent-2-enyl (1RS,3RS;1RS,3SR)-2,2-dimethyl-3-(2-methylprop-1-enyl)cyclopropanecarboxylate
2,2-Dimethyl-3-(2-methyl-1-propen-1-yl)cyclopropanecarboxylic Acid 2-Methyl-4-oxo-3-(2-propyn-1-yl)-2-cyclopenten-1-yl Ester
Cyclopropanecarboxylic acid, 2,2-dimethyl-3-(2-methylpropenyl)-, ester with 4-hydroxy-3-methyl-2-(2-propynyl)-2-cyclopenten-1-one, trans-(.+/-.)-
trans-( inverted exclamation markA)-4-Hydroxy-3-methyl-2-(2-propynyl)-2-cyclopenten-1-one 2,2-Dimethyl-3-(2-methylpropenyl)cyclopropanecarboxylate, (8CI)

> <TPSA>
43.4

> <TotalAidCount>
0

> <TotalFormalCharge>
0

> <XLogP>
4.3

> <database>
PubChem Compound

> <matchingCount>
176

> <primaryID>
9839306

> <queryTranslation>
7628[CompoundID] OR 244[CompoundID] OR 25059[CompoundID] OR 7618[CompoundID] OR 7641[CompoundID] OR 5053[CompoundID] OR 637511[CompoundID] OR 7714[CompoundID] OR 7762[CompoundID] OR 25429[CompoundID]
OR 8842[CompoundID] OR 7794[CompoundID] OR 637566[CompoundID] OR 7843[CompoundID] OR 174[CompoundID] OR 7870[CompoundID] OR 86102[CompoundID] OR 7888[CompoundID] OR 7896[CompoundID] OR 1140[CompoundID
] OR 8042[CompoundID] OR 8058[CompoundID] OR 8078[CompoundID] OR 8087[CompoundID] OR 8117[CompoundID] OR 8133[CompoundID] OR 115224[CompoundID] OR 8175[CompoundID] OR 8194[CompoundID] OR 445639[Compou
ndID] OR 4944[CompoundID] OR 8294[CompoundID] OR 93541[CompoundID] OR 8360[CompoundID] OR 8363[CompoundID] OR 656612[CompoundID] OR 125098[CompoundID] OR 3352[CompoundID] OR 3303913[CompoundID] OR 648
05[CompoundID] OR 31200[CompoundID] OR 1712058[CompoundID] OR 31236[CompoundID] OR 31239[CompoundID] OR 31265[CompoundID] OR 31266[CompoundID] OR 31276[CompoundID] OR 6950273[CompoundID] OR 518659[Com
poundID] OR 14896[CompoundID] OR 14798[CompoundID] OR 14829[CompoundID] OR 14830[CompoundID] OR 8635[CompoundID] OR 23266[CompoundID] OR 4284[CompoundID] OR 8693[CompoundID] OR 22311[CompoundID] OR 87
59[CompoundID] OR 8785[CompoundID] OR 2723810[CompoundID] OR 8857[CompoundID] OR 3893[CompoundID] OR 9936739[CompoundID] OR 516892[CompoundID] OR 5430[CompoundID] OR 9017[CompoundID] OR 15433[Compound
ID] OR 107720[CompoundID] OR 9552081[CompoundID] OR 164825[CompoundID] OR 10275455[CompoundID] OR 16666[CompoundID] OR 9839306[CompoundID] OR 5282227[CompoundID] OR 23676745[CompoundID] OR 32881[Compo
undID] OR 91581[CompoundID] OR 39800[CompoundID] OR 33344[CompoundID] OR 15962220[CompoundID] OR 33528[CompoundID] OR 5365075[CompoundID] OR 62829[CompoundID] OR 162381[CompoundID] OR 517202[CompoundI
D] OR 6433353[CompoundID] OR 2730[CompoundID] OR 5372405[CompoundID] OR 36081[CompoundID] OR 3120[CompoundID] OR 3017[CompoundID] OR 2969[CompoundID] OR 18827[CompoundID] OR 19518[CompoundID] OR 19658
[CompoundID] OR 38283[CompoundID] OR 2758[CompoundID] OR 10112[CompoundID] OR 10340[CompoundID] OR 712[CompoundID] OR 5794[CompoundID] OR 3347[CompoundID] OR 104150[CompoundID] OR 2912[CompoundID] OR
2450[CompoundID] OR 40326[CompoundID] OR 40585[CompoundID] OR 517055[CompoundID] OR 10913[CompoundID] OR 108242[CompoundID] OR 62097[CompoundID] OR 41679[CompoundID] OR 54680676[CompoundID] OR 62118[C
ompoundID] OR 753[CompoundID] OR 1030[CompoundID] OR 23673837[CompoundID] OR 54678504[CompoundID] OR 11442[CompoundID] OR 11463[CompoundID] OR 22230[CompoundID] OR 440917[CompoundID] OR 6054[CompoundI
D] OR 43234[CompoundID] OR 22629[CompoundID] OR 3039[CompoundID] OR 2735067[CompoundID] OR 6144[CompoundID] OR 702[CompoundID] OR 284[CompoundID] OR 176[CompoundID] OR 91688[CompoundID] OR 22947[Compo
undID] OR 47445[CompoundID] OR 1711973[CompoundID] OR 243[CompoundID] OR 10342051[CompoundID] OR 5281875[CompoundID] OR 3776[CompoundID] OR 6224[CompoundID] OR 104926[CompoundID] OR 8755[CompoundID] O
R 338[CompoundID] OR 123622[CompoundID] OR 23954[CompoundID] OR 6334[CompoundID] OR 2537[CompoundID] OR 24261[CompoundID] OR 23665760[CompoundID] OR 83975[CompoundID] OR 784[CompoundID] OR 24437[Compo
undID] OR 5360315[CompoundID] OR 311[CompoundID] OR 6549[CompoundID] OR 107689[CompoundID] OR 17100[CompoundID] OR 24976875[CompoundID] OR 6654[CompoundID] OR 71245[CompoundID] OR 6442842[CompoundID]
OR 62334[CompoundID] OR 54698175[CompoundID] OR 6328154[CompoundID] OR 24762[CompoundID] OR 440950[CompoundID] OR 7017[CompoundID] OR 5281873[CompoundID] OR 323[CompoundID] OR 5281167[CompoundID] OR 7
175[CompoundID] OR 7292[CompoundID] OR 6335613[CompoundID] OR 7456[CompoundID] OR 7462[CompoundID]

> <resultIndex>
12

> <resultRange>
1-176

> <textQuery>
7628,244,25059,7618,7641,5053,637511,7714,7762,25429,8842,7794,637566,7843,174,7870,86102,7888,7896,1140,8042,8058,8078,8087,8117,8133,115224,8175,8194,445639,4944,8294,93541,8360,8363,656612,125098,3
352,3303913,64805,31200,1712058,31236,31239,31265,31266,31276,6950273,518659,14896,14798,14829,14830,8635,23266,4284,8693,22311,8759,8785,2723810,8857,3893,9936739,516892,5430,9017,15433,107720,955208
1,164825,10275455,16666,9839306,5282227,23676745,32881,91581,39800,33344,15962220,33528,5365075,62829,162381,517202,6433353,2730,5372405,36081,3120,3017,2969,18827,19518,19658,38283,2758,10112,10340,7
12,5794,3347,104150,2912,2450,40326,40585,517055,10913,108242,62097,41679,54680676,62118,753,1030,23673837,54678504,11442,11463,22230,440917,6054,43234,22629,3039,2735067,6144,702,284,176,91688,22947,
47445,1711973,243,10342051,5281875,3776,6224,104926,8755,338,123622,23954,6334,2537,24261,23665760,83975,784,24437,5360315,311,6549,107689,17100,24976875,6654,71245,6442842,62334,54698175,6328154,2476
2,440950,7017,5281873,323,5281167,7175,7292,6335613,7456,7462

$$$$
9,552,081
  SciTegic10191915303D

 64 65  0  0  0  0            999 V2000
    8.1250    1.0270   -3.6580 Cl  0  0
   -3.6680   -7.6640    3.0570 Cl  0  0
    2.2930    0.2170   -4.0330 N   0  0
   -0.8610   -2.6800    4.5060 N   0  0
    0.2230    0.8280   -5.0840 N   0  0
   -0.6660   -0.3010    4.2360 N   0  0
    2.2360    1.3320   -6.0160 N   0  0
   -1.9060   -1.5720    2.8150 N   0  0
    0.0120    1.1480   -2.7150 N   0  0
   -0.6620    1.9940    3.5350 N   0  0
   -1.6900    0.3030   -3.9670 N   0  0
   -2.5960    0.8320    3.8280 N   0  0
    3.6460    0.4040   -3.9450 C   0  0
   -1.5120   -3.8380    4.1700 C   0  0
    4.5020   -0.6990   -3.7660 C   0  0
   -2.9160   -3.9120    4.2660 C   0  0
    4.1850    1.7010   -4.0330 C   0  0
   -0.7810   -4.9570    3.7290 C   0  0
    1.5860    0.7950   -5.0510 C   0  0
   -1.1490   -1.5180    3.8460 C   0  0
    6.4320    0.7910   -3.7660 C   0  0
   -2.8520   -6.2170    3.4790 C   0  0
    5.8910   -0.5060   -3.6780 C   0  0
   -3.5840   -5.1000    3.9200 C   0  0
    5.5760    1.8950   -3.9430 C   0  0
   -1.4490   -6.1450    3.3850 C   0  0
   -0.4920    0.7560   -3.9220 C   0  0
   -1.3170    0.8420    3.8670 C   0  0
   -0.7440    0.8550   -1.4880 C   0  0
   -1.4420    3.1800    3.1470 C   0  0
   -1.8170    1.9160   -1.2380 C   0  0
   -1.9060    3.0760    1.6930 C   0  0
   -1.2330    3.2440   -0.7560 C   0  0
   -0.7540    3.1860    0.6950 C   0  0
    1.8200   -0.3440   -3.3530 H   0  0
   -0.1760   -2.6880    5.2330 H   0  0
   -0.2580    0.9020   -5.9590 H   0  0
    0.1620   -0.2520    4.7930 H   0  0
    1.7460    1.7640   -6.7730 H   0  0
   -2.2520   -2.4530    2.4880 H   0  0
    0.8870    1.6290   -2.6660 H   0  0
    0.3360    2.0230    3.5590 H   0  0
   -2.2420    0.2560   -3.1350 H   0  0
   -3.1040    0.0210    4.1250 H   0  0
    4.1070   -1.7030   -3.6950 H   0  0
   -3.4940   -3.0630    4.6040 H   0  0
    3.5450    2.5630   -4.1720 H   0  0
    0.2970   -4.9200    3.6490 H   0  0
    6.5370   -1.3610   -3.5410 H   0  0
   -4.6600   -5.1410    3.9980 H   0  0
    5.9750    2.8970   -4.0100 H   0  0
   -0.8750   -6.9960    3.0490 H   0  0
   -1.1940   -0.1350   -1.5720 H   0  0
   -0.0550    0.8010   -0.6460 H   0  0
   -0.8340    4.0720    3.2930 H   0  0
   -2.2930    3.2830    3.8170 H   0  0
   -2.4260    2.0640   -2.1310 H   0  0
   -2.5690    1.5490   -0.5390 H   0  0
   -2.6720    3.8220    1.4810 H   0  0
   -2.4690    2.1560    1.5330 H   0  0
   -0.4280    3.5740   -1.4140 H   0  0
   -1.9490    4.0530   -0.8930 H   0  0
   -0.0450    2.3670    0.8340 H   0  0
   -0.1230    4.0430    0.9280 H   0  0
  1 21  1  0
  2 22  1  0
  3 13  1  0
  3 19  1  0
  4 14  1  0
  4 20  1  0
  5 19  1  0
  5 27  1  0
  6 20  1  0
  6 28  1  0
  7 19  2  0
  8 20  2  0
  9 27  1  0
  9 29  1  0
 10 28  1  0
 10 30  1  0
 11 27  2  0
 12 28  2  0
 13 15  2  0
 13 17  1  0
 14 16  2  0
 14 18  1  0
 15 23  1  0
 16 24  1  0
 17 25  2  0
 18 26  2  0
 21 23  2  0
 21 25  1  0
 22 24  2  0
 22 26  1  0
 29 31  1  0
 30 32  1  0
 31 33  1  0
 32 34  1  0
 33 34  1  0
  3 35  1  0
  4 36  1  0
  5 37  1  0
  6 38  1  0
  7 39  1  0
  8 40  1  0
  9 41  1  0
 10 42  1  0
 11 43  1  0
 12 44  1  0
 15 45  1  0
 16 46  1  0
 17 47  1  0
 18 48  1  0
 23 49  1  0
 24 50  1  0
 25 51  1  0
 26 52  1  0
 29 53  1  0
 29 54  1  0
 30 55  1  0
 30 56  1  0
 31 57  1  0
 31 58  1  0
 32 59  1  0
 32 60  1  0
 33 61  1  0
 33 62  1  0
 34 63  1  0
 34 64  1  0
M  END
> <Name>
9,552,081

> <OBJECTID>
9223372092692693003

> <ActiveAidCount>
0

> <AtomChiralCount>
8

> <AtomChiralDefCount>
8

> <AtomChiralUndefCount>
0

> <BondChiralCount>
2

> <BondChiralDefCount>
2

> <BondChiralUndefCount>
0

> <CID>
9552081

> <CanonicalSmiles>
C1=CC(=CC=C1NC(=NC(=NCCCCCCN=C(N)N=C(N)NC2=CC=C(C=C2)Cl)N)N)Cl.C(C(C(C(C(C(=O)O)O)O)O)O)O.C(C(C(C(C(C(=O)O)O)O)O)O)O

> <Complexity>
819

> <CovalentUnitCount>
3

> <CreateDate>
2006/10/23 00:00

> <HeavyAtomCount>
60

> <HydrogenBondAcceptorCount>
16

> <HydrogenBondDonorCount>
18

> <IUPACName>
(1E)-2-[6-[[amino-[(E)-[amino-(4-chloroanilino)methylidene]amino]methylidene]amino]hexyl]-1-[amino-(4-chloroanilino)methylidene]guanidine;(2R,3S,4R,5R)-2,3,4,5,6-pentahydroxyhexanoic acid

> <InChI>
InChI=1S/C22H30Cl2N10.2C6H12O7/c23-15-5-9-17(10-6-15)31-21(27)33-19(25)29-13-3-1-2-4-14-30-20(26)34-22(28)32-18-11-7-16(24)8-12-18;2*7-1-2(8)3(9)4(10)5(11)6(12)13/h5-12H,1-4,13-14H2,(H5,25,27,29,31,33
)(H5,26,28,30,32,34);2*2-5,7-11H,1H2,(H,12,13)/t;2*2-,3-,4+,5-/m.11/s1

> <InChIKey>
YZIYKJHYYHPJIB-UUPCJSQJSA-N

> <IsomericSmiles>
C1=CC(=CC=C1N/C(=N/C(=NCCCCCCN=C(/N=C(/NC2=CC=C(C=C2)Cl)\N)N)N)/N)Cl.C(O)[C@@H](O)[C@@H](O)[C@H](O)[C@@H](O)C(=O)O.C(O)[C@@H](O)[C@@H](O)[C@H](O)[C@@H](O)C(=O)O

> <IsotopeAtomCount>
0

> <MeSHHeading>
chlorhexidine gluconate

> <MeSHTerm>
Hibisol
Corsodyl ICI
Perio Chip
Hexidine
Chlorhexamed
Curasept ADS 220
chlorhexidine digluconate
avagard
Hibitane
chlorhexidine gluconate
Eludril
chlorhexidine bigluconate
1,1'-HBCB
Hibiclens
Dyna-Hex
Peridex
Hibident
Hibiscrub
Gibitan

> <MolecularFormula>
C34H54Cl2N10O14

> <MolecularWeight>
897.8

> <PharmAction>
Pharmacologic Actions
Anti-Infective Agents, Local
Dermatologic Agents
Chemical Actions and Uses
Anti-Infective Agents
Therapeutic Uses

> <RotatableBondCount>
23

> <Smiles>
Clc(ccc1NC(=N)NC(=N)NCCCCCCNC(=N)NC(=N)Nc2ccc(cc2)Cl)cc1.O[C@H]([C@H](C(O)=O)O)[C@@H]([C@@H](CO)O)O.O[C@H]([C@H](C(O)=O)O)[C@@H]([C@@H](CO)O)O

> <SourceCategory>
Legacy Depositors
Chemical Vendors
Subscription Services
Governmental Organizations
Research and Development
Curation Efforts
Journal Publishers

> <Synonym>
CHLORHEXIDINE DIGLUCONATE
18472-51-0
Chlorhexidine gluconate
Hibiclens
Peridex
Unisept
Hibiscrub
Hibitane
Dyna-hex
UNII-MOR84MUD8E
Chlorhexidine D-digluconate
Chlorhexidine di-D-gluconate
Bioscrub
Exidine
Hibidil
Microderm
Periochip
Periogard
Abacil
Prevacare R
Arlacide G
Brian Care
Steri-Stat
Cida-Stat
MOR84MUD8E
Pharmaseal Scrub Care
Chlorhexidine digluconate solution
1,1'-Hexamethylene bis(5-(p-chlorophenyl)biguanide), digluconate
Kleersight
Fight bac
Chlorhexidin glukonatu
MFCD00083599
Prevacare
pHiso-Med
Hibitane gluconate
Hibiclens (TN)
Periogard (TN)
Peridex (TN)
Chlorhexidine gluconate [USAN:USP:JAN]
EC 242-354-0
SCHEMBL34468
DTXSID5034519
CHEBI:28312
Chx plus concentrate premium chlorhexidine teat dip concentrate
Chlorhexidine gluconate (JP17/USP)
AKOS015896303
AKOS025310696
AN-18792
D-Gluconic acid, compd. with N1,N14-bis(4-chlorophenyl)-3,12-diimino-2,4,11,13-tetraazatetradecanediimidamide (2:1)
M166
C08038
D00858
Chlorhexidine digluconate solution, 20% in H2O
I06-2074
J-011837
1,1'-Hexamethylenebis[5-(4-chlorophenyl)biguanide] Digluconate
Chlorhexidine digluconate, Pharmaceutical Secondary Standard; Certified Reference Material
(1E)-2-[6-[[amino-[(E)-[amino-(4-chloroanilino)methylene]amino]methylene]amino]hexyl]-1-[amino-(4-chloroanilino)methylene]guanidine; (2R,3S,4R,5R)-2,3,4,5,6-pentahydroxyhexanoic acid
1,6-Bis(N5-[p-chlorophenyl]-N1-biguanido)hexane; 1,1 inverted exclamation marka-Hexamethylenebis(5-[p-chlorophenyl]biguanide)
1,6-Bis(N5-[p-chlorophenyl]-N1-biguanido)hexane; 1,1'-Hexamethylenebis(5-[p-chlorophenyl]biguanide)
1-(4-chlorophenyl)-3-[N-[6-[[N-[N-(4-chlorophenyl)carbamimidoyl]carbamimidoyl]amino]hexyl]carbamimidoyl]guanidine; (2R,3S,4R,5R)-2,3,4,5,6-pentahydroxyhexanoic acid
2,4,11,13-Tetraazatetradecanediimidamide, N,N''-bis(4-chlorophenyl)-3,12-diimino-, digluconate
D-Gluconic acid, compd with N,N''-bis(4-chlorophenyl)-3,12-diimino-2,4,11,13-tetraazatetradecanediimidamide (2:1)
Gluconic acid, compd. with 1,1'-hexamethylene bis(5-(p-chlorophenyl)biguanide) (2:1), D- (8CI)
N',N'''''-hexane-1,6-diylbis[N-(4-chlorophenyl)(imidodicarbonimidic diamide)]--D-gluconic acid (1/2)

> <TPSA>
455

> <TotalAidCount>
0

> <TotalFormalCharge>
0

> <database>
PubChem Compound

> <matchingCount>
176

> <primaryID>
9552081

> <queryTranslation>
7628[CompoundID] OR 244[CompoundID] OR 25059[CompoundID] OR 7618[CompoundID] OR 7641[CompoundID] OR 5053[CompoundID] OR 637511[CompoundID] OR 7714[CompoundID] OR 7762[CompoundID] OR 25429[CompoundID]
OR 8842[CompoundID] OR 7794[CompoundID] OR 637566[CompoundID] OR 7843[CompoundID] OR 174[CompoundID] OR 7870[CompoundID] OR 86102[CompoundID] OR 7888[CompoundID] OR 7896[CompoundID] OR 1140[CompoundID
] OR 8042[CompoundID] OR 8058[CompoundID] OR 8078[CompoundID] OR 8087[CompoundID] OR 8117[CompoundID] OR 8133[CompoundID] OR 115224[CompoundID] OR 8175[CompoundID] OR 8194[CompoundID] OR 445639[Compou
ndID] OR 4944[CompoundID] OR 8294[CompoundID] OR 93541[CompoundID] OR 8360[CompoundID] OR 8363[CompoundID] OR 656612[CompoundID] OR 125098[CompoundID] OR 3352[CompoundID] OR 3303913[CompoundID] OR 648
05[CompoundID] OR 31200[CompoundID] OR 1712058[CompoundID] OR 31236[CompoundID] OR 31239[CompoundID] OR 31265[CompoundID] OR 31266[CompoundID] OR 31276[CompoundID] OR 6950273[CompoundID] OR 518659[Com
poundID] OR 14896[CompoundID] OR 14798[CompoundID] OR 14829[CompoundID] OR 14830[CompoundID] OR 8635[CompoundID] OR 23266[CompoundID] OR 4284[CompoundID] OR 8693[CompoundID] OR 22311[CompoundID] OR 87
59[CompoundID] OR 8785[CompoundID] OR 2723810[CompoundID] OR 8857[CompoundID] OR 3893[CompoundID] OR 9936739[CompoundID] OR 516892[CompoundID] OR 5430[CompoundID] OR 9017[CompoundID] OR 15433[Compound
ID] OR 107720[CompoundID] OR 9552081[CompoundID] OR 164825[CompoundID] OR 10275455[CompoundID] OR 16666[CompoundID] OR 9839306[CompoundID] OR 5282227[CompoundID] OR 23676745[CompoundID] OR 32881[Compo
undID] OR 91581[CompoundID] OR 39800[CompoundID] OR 33344[CompoundID] OR 15962220[CompoundID] OR 33528[CompoundID] OR 5365075[CompoundID] OR 62829[CompoundID] OR 162381[CompoundID] OR 517202[CompoundI
D] OR 6433353[CompoundID] OR 2730[CompoundID] OR 5372405[CompoundID] OR 36081[CompoundID] OR 3120[CompoundID] OR 3017[CompoundID] OR 2969[CompoundID] OR 18827[CompoundID] OR 19518[CompoundID] OR 19658
[CompoundID] OR 38283[CompoundID] OR 2758[CompoundID] OR 10112[CompoundID] OR 10340[CompoundID] OR 712[CompoundID] OR 5794[CompoundID] OR 3347[CompoundID] OR 104150[CompoundID] OR 2912[CompoundID] OR
2450[CompoundID] OR 40326[CompoundID] OR 40585[CompoundID] OR 517055[CompoundID] OR 10913[CompoundID] OR 108242[CompoundID] OR 62097[CompoundID] OR 41679[CompoundID] OR 54680676[CompoundID] OR 62118[C
ompoundID] OR 753[CompoundID] OR 1030[CompoundID] OR 23673837[CompoundID] OR 54678504[CompoundID] OR 11442[CompoundID] OR 11463[CompoundID] OR 22230[CompoundID] OR 440917[CompoundID] OR 6054[CompoundI
D] OR 43234[CompoundID] OR 22629[CompoundID] OR 3039[CompoundID] OR 2735067[CompoundID] OR 6144[CompoundID] OR 702[CompoundID] OR 284[CompoundID] OR 176[CompoundID] OR 91688[CompoundID] OR 22947[Compo
undID] OR 47445[CompoundID] OR 1711973[CompoundID] OR 243[CompoundID] OR 10342051[CompoundID] OR 5281875[CompoundID] OR 3776[CompoundID] OR 6224[CompoundID] OR 104926[CompoundID] OR 8755[CompoundID] O
R 338[CompoundID] OR 123622[CompoundID] OR 23954[CompoundID] OR 6334[CompoundID] OR 2537[CompoundID] OR 24261[CompoundID] OR 23665760[CompoundID] OR 83975[CompoundID] OR 784[CompoundID] OR 24437[Compo
undID] OR 5360315[CompoundID] OR 311[CompoundID] OR 6549[CompoundID] OR 107689[CompoundID] OR 17100[CompoundID] OR 24976875[CompoundID] OR 6654[CompoundID] OR 71245[CompoundID] OR 6442842[CompoundID]
OR 62334[CompoundID] OR 54698175[CompoundID] OR 6328154[CompoundID] OR 24762[CompoundID] OR 440950[CompoundID] OR 7017[CompoundID] OR 5281873[CompoundID] OR 323[CompoundID] OR 5281167[CompoundID] OR 7
175[CompoundID] OR 7292[CompoundID] OR 6335613[CompoundID] OR 7456[CompoundID] OR 7462[CompoundID]

> <resultIndex>
13

> <resultRange>
1-176

> <textQuery>
7628,244,25059,7618,7641,5053,637511,7714,7762,25429,8842,7794,637566,7843,174,7870,86102,7888,7896,1140,8042,8058,8078,8087,8117,8133,115224,8175,8194,445639,4944,8294,93541,8360,8363,656612,125098,3
352,3303913,64805,31200,1712058,31236,31239,31265,31266,31276,6950273,518659,14896,14798,14829,14830,8635,23266,4284,8693,22311,8759,8785,2723810,8857,3893,9936739,516892,5430,9017,15433,107720,955208
1,164825,10275455,16666,9839306,5282227,23676745,32881,91581,39800,33344,15962220,33528,5365075,62829,162381,517202,6433353,2730,5372405,36081,3120,3017,2969,18827,19518,19658,38283,2758,10112,10340,7
12,5794,3347,104150,2912,2450,40326,40585,517055,10913,108242,62097,41679,54680676,62118,753,1030,23673837,54678504,11442,11463,22230,440917,6054,43234,22629,3039,2735067,6144,702,284,176,91688,22947,
47445,1711973,243,10342051,5281875,3776,6224,104926,8755,338,123622,23954,6334,2537,24261,23665760,83975,784,24437,5360315,311,6549,107689,17100,24976875,6654,71245,6442842,62334,54698175,6328154,2476
2,440950,7017,5281873,323,5281167,7175,7292,6335613,7456,7462

$$$$
6,950,273
  SciTegic10191915303D

 34 35  0  0  1  0            999 V2000
    1.4100    1.1070   -0.4260 O   0  0
    2.4100    0.7500   -2.3980 O   0  0
   -0.8970    0.4160   -0.0140 C   0  0  1  0  0  0
   -0.6090   -0.7420    0.9530 C   0  0
   -0.4830   -1.7050   -0.2320 C   0  0  2  0  0  0
    0.2990    0.4140   -0.9820 C   0  0  2  0  0  0
   -2.1250   -0.0780   -0.7970 C   0  0
    0.6130   -1.0780   -1.1070 C   0  0
   -1.8240   -1.5680   -0.9670 C   0  0
   -1.1510    1.7740    0.6350 C   0  0
   -1.7680   -1.0840    1.8950 C   0  0
    0.6830   -0.6000    1.7600 C   0  0
    2.4280    1.1990   -1.2770 C   0  0
    3.6410    1.9160   -0.7480 C   0  0
   -0.2600   -2.7250    0.0430 H   0  0
    0.0620    0.8690   -1.9340 H   0  0
   -3.0370    0.0650   -0.2360 H   0  0
   -2.2400    0.4280   -1.7440 H   0  0
    0.5700   -1.4240   -2.1310 H   0  0
    1.5980   -1.3110   -0.7230 H   0  0
   -1.7580   -1.8610   -2.0040 H   0  0
   -2.5880   -2.1720   -0.5000 H   0  0
   -1.3500    2.5490   -0.1050 H   0  0
   -0.2870    2.0880    1.2210 H   0  0
   -2.0080    1.7270    1.3070 H   0  0
   -2.7050   -1.2090    1.3540 H   0  0
   -1.9100   -0.2930    2.6310 H   0  0
   -1.5670   -2.0100    2.4320 H   0  0
    1.5570   -0.5140    1.1150 H   0  0
    0.8300   -1.4630    2.4080 H   0  0
    0.6460    0.2890    2.3910 H   0  0
    4.4180    1.9400   -1.5100 H   0  0
    3.3650    2.9200   -0.4260 H   0  0
    4.0370    1.3850    0.1170 H   0  0
  6  1  1  0
  1 13  1  0
  2 13  2  0
  3  4  1  0
  3  6  1  0
  3  7  1  0
  3 10  1  0
  5  4  1  0
  4 11  1  0
  4 12  1  0
  5  8  1  0
  5  9  1  0
  6  8  1  0
  7  9  1  0
 13 14  1  0
  5 15  1  0
  6 16  1  0
  7 17  1  0
  7 18  1  0
  8 19  1  0
  8 20  1  0
  9 21  1  0
  9 22  1  0
 10 23  1  0
 10 24  1  0
 10 25  1  0
 11 26  1  0
 11 27  1  0
 11 28  1  0
 12 29  1  0
 12 30  1  0
 12 31  1  0
 14 32  1  0
 14 33  1  0
 14 34  1  0
M  END
> <Name>
6,950,273

> <OBJECTID>
9223372096987660299

> <ActiveAidCount>
0

> <AtomChiralCount>
3

> <AtomChiralDefCount>
3

> <AtomChiralUndefCount>
0

> <BondChiralCount>
0

> <BondChiralDefCount>
0

> <BondChiralUndefCount>
0

> <CID>
6950273

> <CanonicalSmiles>
CC(=O)OC1CC2CCC1(C2(C)C)C

> <Complexity>
270

> <CovalentUnitCount>
1

> <CreateDate>
2006/07/28 00:00

> <HeavyAtomCount>
14

> <HydrogenBondAcceptorCount>
2

> <HydrogenBondDonorCount>
0

> <IUPACName>
[(1S,2S,4S)-1,7,7-trimethyl-2-bicyclo[2.2.1]heptanyl] acetate

> <InChI>
InChI=1S/C12H20O2/c1-8(13)14-10-7-9-5-6-12(10,4)11(9,2)3/h9-10H,5-7H2,1-4H3/t9-,10-,12+/m0/s1

> <InChIKey>
KGEKLUUHTZCSIP-JBLDHEPKSA-N

> <IsomericSmiles>
CC(=O)O[C@H]1C[C@@H]2CC[C@]1(C2(C)C)C

> <IsotopeAtomCount>
0

> <MeSHHeading>
pichtosin

> <MeSHTerm>
pichtosin
isobornyl acetate

> <MolecularFormula>
C12H20O2

> <MolecularWeight>
196.29

> <RotatableBondCount>
2

> <Smiles>
O(C(C)=O)[C@H]1C[C@H](CC2)C(C)(C)[C@@]12C

> <SourceCategory>
Legacy Depositors
Chemical Vendors
Governmental Organizations
Subscription Services
Research and Development
Curation Efforts

> <Synonym>
Isobornyl acetate
125-12-2
acetic acid isobornyl ester
MFCD00135943
2-Camphanyl acetate
[(1S,3S,4S)-4,7,7-trimethyl-3-bicyclo[2.2.1]heptanyl] acetate
exo-1,7,7-trimethylbicyclo[2.2.1]hept-2-yl acetate
AC1OCT9Q
AC1OCT9T
Isobornyl acetate, >=95%
SCHEMBL117759
ZINC388662
AKOS006281613
ZB011641
W-108405
I14-18528
UNII-54T6CCU09Z component KGEKLUUHTZCSIP-JBLDHEPKSA-N
[(1R,3S,4R)-4,7,7-trimethyl-3-bicyclo[2.2.1]heptanyl] acetate

> <TPSA>
26.3

> <TotalAidCount>
0

> <TotalFormalCharge>
0

> <XLogP>
3.3

> <database>
PubChem Compound

> <matchingCount>
176

> <primaryID>
6950273

> <queryTranslation>
7628[CompoundID] OR 244[CompoundID] OR 25059[CompoundID] OR 7618[CompoundID] OR 7641[CompoundID] OR 5053[CompoundID] OR 637511[CompoundID] OR 7714[CompoundID] OR 7762[CompoundID] OR 25429[CompoundID]
OR 8842[CompoundID] OR 7794[CompoundID] OR 637566[CompoundID] OR 7843[CompoundID] OR 174[CompoundID] OR 7870[CompoundID] OR 86102[CompoundID] OR 7888[CompoundID] OR 7896[CompoundID] OR 1140[CompoundID
] OR 8042[CompoundID] OR 8058[CompoundID] OR 8078[CompoundID] OR 8087[CompoundID] OR 8117[CompoundID] OR 8133[CompoundID] OR 115224[CompoundID] OR 8175[CompoundID] OR 8194[CompoundID] OR 445639[Compou
ndID] OR 4944[CompoundID] OR 8294[CompoundID] OR 93541[CompoundID] OR 8360[CompoundID] OR 8363[CompoundID] OR 656612[CompoundID] OR 125098[CompoundID] OR 3352[CompoundID] OR 3303913[CompoundID] OR 648
05[CompoundID] OR 31200[CompoundID] OR 1712058[CompoundID] OR 31236[CompoundID] OR 31239[CompoundID] OR 31265[CompoundID] OR 31266[CompoundID] OR 31276[CompoundID] OR 6950273[CompoundID] OR 518659[Com
poundID] OR 14896[CompoundID] OR 14798[CompoundID] OR 14829[CompoundID] OR 14830[CompoundID] OR 8635[CompoundID] OR 23266[CompoundID] OR 4284[CompoundID] OR 8693[CompoundID] OR 22311[CompoundID] OR 87
59[CompoundID] OR 8785[CompoundID] OR 2723810[CompoundID] OR 8857[CompoundID] OR 3893[CompoundID] OR 9936739[CompoundID] OR 516892[CompoundID] OR 5430[CompoundID] OR 9017[CompoundID] OR 15433[Compound
ID] OR 107720[CompoundID] OR 9552081[CompoundID] OR 164825[CompoundID] OR 10275455[CompoundID] OR 16666[CompoundID] OR 9839306[CompoundID] OR 5282227[CompoundID] OR 23676745[CompoundID] OR 32881[Compo
undID] OR 91581[CompoundID] OR 39800[CompoundID] OR 33344[CompoundID] OR 15962220[CompoundID] OR 33528[CompoundID] OR 5365075[CompoundID] OR 62829[CompoundID] OR 162381[CompoundID] OR 517202[CompoundI
D] OR 6433353[CompoundID] OR 2730[CompoundID] OR 5372405[CompoundID] OR 36081[CompoundID] OR 3120[CompoundID] OR 3017[CompoundID] OR 2969[CompoundID] OR 18827[CompoundID] OR 19518[CompoundID] OR 19658
[CompoundID] OR 38283[CompoundID] OR 2758[CompoundID] OR 10112[CompoundID] OR 10340[CompoundID] OR 712[CompoundID] OR 5794[CompoundID] OR 3347[CompoundID] OR 104150[CompoundID] OR 2912[CompoundID] OR
2450[CompoundID] OR 40326[CompoundID] OR 40585[CompoundID] OR 517055[CompoundID] OR 10913[CompoundID] OR 108242[CompoundID] OR 62097[CompoundID] OR 41679[CompoundID] OR 54680676[CompoundID] OR 62118[C
ompoundID] OR 753[CompoundID] OR 1030[CompoundID] OR 23673837[CompoundID] OR 54678504[CompoundID] OR 11442[CompoundID] OR 11463[CompoundID] OR 22230[CompoundID] OR 440917[CompoundID] OR 6054[CompoundI
D] OR 43234[CompoundID] OR 22629[CompoundID] OR 3039[CompoundID] OR 2735067[CompoundID] OR 6144[CompoundID] OR 702[CompoundID] OR 284[CompoundID] OR 176[CompoundID] OR 91688[CompoundID] OR 22947[Compo
undID] OR 47445[CompoundID] OR 1711973[CompoundID] OR 243[CompoundID] OR 10342051[CompoundID] OR 5281875[CompoundID] OR 3776[CompoundID] OR 6224[CompoundID] OR 104926[CompoundID] OR 8755[CompoundID] O
R 338[CompoundID] OR 123622[CompoundID] OR 23954[CompoundID] OR 6334[CompoundID] OR 2537[CompoundID] OR 24261[CompoundID] OR 23665760[CompoundID] OR 83975[CompoundID] OR 784[CompoundID] OR 24437[Compo
undID] OR 5360315[CompoundID] OR 311[CompoundID] OR 6549[CompoundID] OR 107689[CompoundID] OR 17100[CompoundID] OR 24976875[CompoundID] OR 6654[CompoundID] OR 71245[CompoundID] OR 6442842[CompoundID]
OR 62334[CompoundID] OR 54698175[CompoundID] OR 6328154[CompoundID] OR 24762[CompoundID] OR 440950[CompoundID] OR 7017[CompoundID] OR 5281873[CompoundID] OR 323[CompoundID] OR 5281167[CompoundID] OR 7
175[CompoundID] OR 7292[CompoundID] OR 6335613[CompoundID] OR 7456[CompoundID] OR 7462[CompoundID]

> <resultIndex>
14

> <resultRange>
1-176

> <textQuery>
7628,244,25059,7618,7641,5053,637511,7714,7762,25429,8842,7794,637566,7843,174,7870,86102,7888,7896,1140,8042,8058,8078,8087,8117,8133,115224,8175,8194,445639,4944,8294,93541,8360,8363,656612,125098,3
352,3303913,64805,31200,1712058,31236,31239,31265,31266,31276,6950273,518659,14896,14798,14829,14830,8635,23266,4284,8693,22311,8759,8785,2723810,8857,3893,9936739,516892,5430,9017,15433,107720,955208
1,164825,10275455,16666,9839306,5282227,23676745,32881,91581,39800,33344,15962220,33528,5365075,62829,162381,517202,6433353,2730,5372405,36081,3120,3017,2969,18827,19518,19658,38283,2758,10112,10340,7
12,5794,3347,104150,2912,2450,40326,40585,517055,10913,108242,62097,41679,54680676,62118,753,1030,23673837,54678504,11442,11463,22230,440917,6054,43234,22629,3039,2735067,6144,702,284,176,91688,22947,
47445,1711973,243,10342051,5281875,3776,6224,104926,8755,338,123622,23954,6334,2537,24261,23665760,83975,784,24437,5360315,311,6549,107689,17100,24976875,6654,71245,6442842,62334,54698175,6328154,2476
2,440950,7017,5281873,323,5281167,7175,7292,6335613,7456,7462

$$$$
6,442,842
  SciTegic10191915303D

 51 53  0  0  1  0            999 V2000
    1.7750    1.6440   -0.4450 C   0  0
    1.0940    2.4770   -1.2500 C   0  0
   -0.1520    2.8980   -3.5330 C   0  0
   -1.6250    1.3220   -2.0190 C   0  0
    0.1900    3.0720   -5.0080 C   0  0
   -0.8440    4.1020   -2.8980 C   0  0
   -2.7890    1.5270   -2.2690 O   0  0
    0.8070    2.0780   -2.6870 C   0  0  2  0  0  0
   -0.5430    1.5060   -3.0680 C   0  0  2  0  0  0
   -1.1820    0.9260   -0.8300 O   0  0
   -2.2340    0.5040    0.0270 C   0  0
   -1.6600   -0.0660    1.2760 C   0  0
   -1.8670    0.6000    2.4940 C   0  0
   -1.3340    0.0780    3.6840 C   0  0
   -0.5920   -1.1150    3.6560 C   0  0
   -0.3790   -1.7890    2.4400 C   0  0
    0.3950   -3.0240    2.4400 C   0  0
    0.4860   -5.4590    2.4400 C   0  0
   -0.2620   -4.2700    2.4400 C   0  0
    1.8030   -2.9750    2.4400 C   0  0
    2.5470   -4.1660    2.4400 C   0  0
    1.8890   -5.4080    2.4400 C   0  0
   -0.9140   -1.2660    1.2420 C   0  0
   -0.7010   -1.9630   -0.0580 C   0  0
    2.3320    0.1130   -1.0250 Cl  0  0
    3.3220    1.4470    1.2720 F   0  0
    1.1540    1.4340    1.8260 F   0  0
    2.0920    1.9780    0.9880 C   0  0
    2.1290    3.3380    1.1660 F   0  0
    0.7890    3.4080   -0.7990 H   0  0
    0.6840    2.1910   -5.4180 H   0  0
    0.8560    3.9240   -5.1500 H   0  0
   -0.7110    3.2540   -5.5940 H   0  0
   -1.1210    3.9120   -1.8610 H   0  0
   -1.7520    4.3570   -3.4450 H   0  0
   -0.1890    4.9750   -2.9140 H   0  0
    1.6660    1.6540   -3.2090 H   0  0
   -0.5270    0.7230   -3.8280 H   0  0
   -2.8440    1.3750    0.2720 H   0  0
   -2.8110   -0.2620   -0.4920 H   0  0
   -2.4370    1.5180    2.5220 H   0  0
   -1.4940    0.5920    4.6170 H   0  0
   -0.1890   -1.5020    4.5820 H   0  0
   -0.0190   -6.4140    2.4400 H   0  0
   -1.3420   -4.3260    2.4400 H   0  0
    2.3240   -2.0270    2.4400 H   0  0
    3.6270   -4.1270    2.4400 H   0  0
    2.4630   -6.3240    2.4400 H   0  0
   -1.6430   -2.4010   -0.3940 H   0  0
   -0.2790   -1.2660   -0.7810 H   0  0
    0.0120   -2.7760    0.0780 H   0  0
  1 25  1  0
  1  2  2  0
  1 28  1  0
  8  2  1  0
  3  9  1  0
  3  8  1  0
  3  5  1  0
  3  6  1  0
  9  4  1  0
  4  7  2  0
  4 10  1  0
  8  9  1  0
 10 11  1  0
 11 12  1  0
 12 23  2  0
 12 13  1  0
 13 14  2  0
 14 15  1  0
 15 16  2  0
 16 23  1  0
 16 17  1  0
 17 19  2  0
 17 20  1  0
 18 19  1  0
 18 22  2  0
 20 21  2  0
 21 22  1  0
 23 24  1  0
 26 28  1  0
 27 28  1  0
 28 29  1  0
  2 30  1  0
  5 31  1  0
  5 32  1  0
  5 33  1  0
  6 34  1  0
  6 35  1  0
  6 36  1  0
  8 37  1  0
  9 38  1  0
 11 39  1  0
 11 40  1  0
 13 41  1  0
 14 42  1  0
 15 43  1  0
 18 44  1  0
 19 45  1  0
 20 46  1  0
 21 47  1  0
 22 48  1  0
 24 49  1  0
 24 50  1  0
 24 51  1  0
M  END
> <Name>
6,442,842

> <OBJECTID>
9223372101282627595

> <ActiveAidCount>
4

> <AtomChiralCount>
2

> <AtomChiralDefCount>
2

> <AtomChiralUndefCount>
0

> <BondChiralCount>
1

> <BondChiralDefCount>
1

> <BondChiralUndefCount>
0

> <CID>
6442842

> <CanonicalSmiles>
CC1=C(C=CC=C1C2=CC=CC=C2)COC(=O)C3C(C3(C)C)C=C(C(F)(F)F)Cl

> <Complexity>
622

> <CovalentUnitCount>
1

> <CreateDate>
2006/04/28 00:00

> <HeavyAtomCount>
29

> <HydrogenBondAcceptorCount>
5

> <HydrogenBondDonorCount>
0

> <IUPACName>
(2-methyl-3-phenylphenyl)methyl (1R,3R)-3-[(Z)-2-chloro-3,3,3-trifluoroprop-1-enyl]-2,2-dimethylcyclopropane-1-carboxylate

> <InChI>
InChI=1S/C23H22ClF3O2/c1-14-16(10-7-11-17(14)15-8-5-4-6-9-15)13-29-21(28)20-18(22(20,2)3)12-19(24)23(25,26)27/h4-12,18,20H,13H2,1-3H3/b19-12-/t18-,20-/m0/s1

> <InChIKey>
OMFRMAHOUUJSGP-IRHGGOMRSA-N

> <IsomericSmiles>
CC1=C(C=CC=C1C2=CC=CC=C2)COC(=O)[C@@H]3[C@@H](C3(C)C)/C=C(/C(F)(F)F)\Cl

> <IsotopeAtomCount>
0

> <MeSHHeading>
bifenthrin

> <MeSHTerm>
bifenthrin

> <MolecularFormula>
C23H22ClF3O2

> <MolecularWeight>
422.9

> <RotatableBondCount>
6

> <Smiles>
C(/C(F)(F)F)(=C\[C@@H]([C@H]1C(OCc2cccc(c3ccccc3)c2C)=O)C1(C)C)\Cl

> <SourceCategory>
Legacy Depositors
Chemical Vendors
Governmental Organizations
NIH Initiatives
Subscription Services
Journal Publishers
Research and Development
Curation Efforts

> <Synonym>
BIFENTHRIN
Discipline
Empower
Fanfare
Biphenthrin
Kappa-bifenthrin
Kappa-bifenthrine
(R)-Bifenthrin
82657-04-3
(1R)-cis-Bifenthrin
Bifenthrine
Biphenate
Biphentrin
Capture
Talstar
(+)-(1R)-cis-Bifenthrin
DeterMite
TalstarOne
CHEBI:3093
Caswell No. 463F
FMC 54800
Bifenthrine [ISO-French]
Bifentrin
439680-76-9
Bifenthrin [ANSI:BSI:ISO]
HSDB 6568
FMC 58000
EPA Pesticide Chemical Code 128825
(2-methyl-[1,1'-biphenyl]-3-yl)methyl rel-(1R,3R)-3-[(1Z)-2-chloro-3,3,3-trifluoroprop-1-en-1-yl]-2,2-dimethylcyclopropanecarboxylate
Kappa-bifenthrin [ISO]
Semafor
Silencer
CCRIS 9249
Kiros EV
(1alpha,3alpha(Z))-(+-)-(2-Methyl(1,1'-biphenyl)-3-yl)methyl 3-(2-chloro-3,3,3-trifluoro-1-propenyl)-2,2-dimethylcyclopropanecarboxylate
(1alpha,3alpha(Z))-(+-)-3-(2-Chloro-3,3,3-trifluoro-1-propenyl)-2,2-dimethylcyclopropanecarboxylic acid (2-methyl(1,1'-biphenyl)-3-yl)methyl ester
2-Methylbiphenyl-3-ylmethyl-(Z)-(1RS)-cis-3-(2-chloro-3,3,3-trifluoroprop-1-enyl)-2,2-dimethylcyclopropanecarboxylate
AC1O5XZW
fmc-54800
SCHEMBL313858
Bifenthrin, analytical standard
CHEMBL2227975
CHEBI:87579
Cyclopropanecarboxylic acid, 3-((1Z)-2-chloro-3,3,3-trifluoro-1-propenyl)-2,2-dimethyl-, (2-methyl(1,1'-biphenyl)-3-yl)methyl ester, (1R,3R)-rel-
Cyclopropanecarboxylic acid, 3-(2-chloro-3,3,3-trifluoro-1-propenyl)-2,2-dimethyl-, (2-methyl(1,1'-biphenyl)-3-yl)methyl ester, (Z)-
ZINC2516821
AKOS015994766
KS-5074
BC220274
522-EP2274983A1
522-EP2275422A1
522-EP2292608A1
522-EP2305662A1
522-EP2308857A1
522-EP2308858A1
522-EP2311816A1
522-EP2311817A1
Bifenthrin, PESTANAL(R), analytical standard
UNII-6B66JED0KN component OMFRMAHOUUJSGP-IRHGGOMRSA-N
(1R,3R)-rel-3-[(1Z)-2-Chloro-3,3,3-trifluoro-1-propen-1-yl]-2,2-dimethylcyclopropanecarboxylic Acid (2-Methyl[1,1'-biphenyl]-3-yl)methyl Ester
(2-methyl(1,1'-biphenyl)-3-yl)methyl (1R,3R)-3-((1Z)-2-chloro-3,3,3-trifluoroprop-1-en-1-yl)-2,2-dimethylcyclopropane-1-carboxylate
(2-methyl-[1,1'-biphenyl]-3-yl)methyl (1R,3R)-3-[(1Z)-2-chloro-3,3,3-trifluoroprop-1-en-1-yl]-2,2-dimethylcyclopropanecarboxylate
(2-methyl-3-phenylphenyl)methyl (1R,3R)-3-[(Z)-2-chloro-3,3,3-trifluoroprop-1-enyl]-2,2-dimethylcyclopropane-1-carboxylate
2-methylbiphenyl-3-ylmethyl (1R)-cis-3-((Z)-2-chloro-3,3,3-trifluoroprop-1-enyl)-2,2-dimethylcyclopropanecarboxylate
Cyclopropanecarboxylic acid,3-[(1Z)-2-chloro-3,3,3-trifluoro-1-propenyl]-2,2-dimethyl-,(2-methyl[1,1'-biphenyl]-3-yl)methyl ester, (1R,3R)-rel-

> <TPSA>
26.3

> <TotalAidCount>
96

> <TotalFormalCharge>
0

> <XLogP>
6

> <database>
PubChem Compound

> <matchingCount>
176

> <primaryID>
6442842

> <queryTranslation>
7628[CompoundID] OR 244[CompoundID] OR 25059[CompoundID] OR 7618[CompoundID] OR 7641[CompoundID] OR 5053[CompoundID] OR 637511[CompoundID] OR 7714[CompoundID] OR 7762[CompoundID] OR 25429[CompoundID]
OR 8842[CompoundID] OR 7794[CompoundID] OR 637566[CompoundID] OR 7843[CompoundID] OR 174[CompoundID] OR 7870[CompoundID] OR 86102[CompoundID] OR 7888[CompoundID] OR 7896[CompoundID] OR 1140[CompoundID
] OR 8042[CompoundID] OR 8058[CompoundID] OR 8078[CompoundID] OR 8087[CompoundID] OR 8117[CompoundID] OR 8133[CompoundID] OR 115224[CompoundID] OR 8175[CompoundID] OR 8194[CompoundID] OR 445639[Compou
ndID] OR 4944[CompoundID] OR 8294[CompoundID] OR 93541[CompoundID] OR 8360[CompoundID] OR 8363[CompoundID] OR 656612[CompoundID] OR 125098[CompoundID] OR 3352[CompoundID] OR 3303913[CompoundID] OR 648
05[CompoundID] OR 31200[CompoundID] OR 1712058[CompoundID] OR 31236[CompoundID] OR 31239[CompoundID] OR 31265[CompoundID] OR 31266[CompoundID] OR 31276[CompoundID] OR 6950273[CompoundID] OR 518659[Com
poundID] OR 14896[CompoundID] OR 14798[CompoundID] OR 14829[CompoundID] OR 14830[CompoundID] OR 8635[CompoundID] OR 23266[CompoundID] OR 4284[CompoundID] OR 8693[CompoundID] OR 22311[CompoundID] OR 87
59[CompoundID] OR 8785[CompoundID] OR 2723810[CompoundID] OR 8857[CompoundID] OR 3893[CompoundID] OR 9936739[CompoundID] OR 516892[CompoundID] OR 5430[CompoundID] OR 9017[CompoundID] OR 15433[Compound
ID] OR 107720[CompoundID] OR 9552081[CompoundID] OR 164825[CompoundID] OR 10275455[CompoundID] OR 16666[CompoundID] OR 9839306[CompoundID] OR 5282227[CompoundID] OR 23676745[CompoundID] OR 32881[Compo
undID] OR 91581[CompoundID] OR 39800[CompoundID] OR 33344[CompoundID] OR 15962220[CompoundID] OR 33528[CompoundID] OR 5365075[CompoundID] OR 62829[CompoundID] OR 162381[CompoundID] OR 517202[CompoundI
D] OR 6433353[CompoundID] OR 2730[CompoundID] OR 5372405[CompoundID] OR 36081[CompoundID] OR 3120[CompoundID] OR 3017[CompoundID] OR 2969[CompoundID] OR 18827[CompoundID] OR 19518[CompoundID] OR 19658
[CompoundID] OR 38283[CompoundID] OR 2758[CompoundID] OR 10112[CompoundID] OR 10340[CompoundID] OR 712[CompoundID] OR 5794[CompoundID] OR 3347[CompoundID] OR 104150[CompoundID] OR 2912[CompoundID] OR
2450[CompoundID] OR 40326[CompoundID] OR 40585[CompoundID] OR 517055[CompoundID] OR 10913[CompoundID] OR 108242[CompoundID] OR 62097[CompoundID] OR 41679[CompoundID] OR 54680676[CompoundID] OR 62118[C
ompoundID] OR 753[CompoundID] OR 1030[CompoundID] OR 23673837[CompoundID] OR 54678504[CompoundID] OR 11442[CompoundID] OR 11463[CompoundID] OR 22230[CompoundID] OR 440917[CompoundID] OR 6054[CompoundI
D] OR 43234[CompoundID] OR 22629[CompoundID] OR 3039[CompoundID] OR 2735067[CompoundID] OR 6144[CompoundID] OR 702[CompoundID] OR 284[CompoundID] OR 176[CompoundID] OR 91688[CompoundID] OR 22947[Compo
undID] OR 47445[CompoundID] OR 1711973[CompoundID] OR 243[CompoundID] OR 10342051[CompoundID] OR 5281875[CompoundID] OR 3776[CompoundID] OR 6224[CompoundID] OR 104926[CompoundID] OR 8755[CompoundID] O
R 338[CompoundID] OR 123622[CompoundID] OR 23954[CompoundID] OR 6334[CompoundID] OR 2537[CompoundID] OR 24261[CompoundID] OR 23665760[CompoundID] OR 83975[CompoundID] OR 784[CompoundID] OR 24437[Compo
undID] OR 5360315[CompoundID] OR 311[CompoundID] OR 6549[CompoundID] OR 107689[CompoundID] OR 17100[CompoundID] OR 24976875[CompoundID] OR 6654[CompoundID] OR 71245[CompoundID] OR 6442842[CompoundID]
OR 62334[CompoundID] OR 54698175[CompoundID] OR 6328154[CompoundID] OR 24762[CompoundID] OR 440950[CompoundID] OR 7017[CompoundID] OR 5281873[CompoundID] OR 323[CompoundID] OR 5281167[CompoundID] OR 7
175[CompoundID] OR 7292[CompoundID] OR 6335613[CompoundID] OR 7456[CompoundID] OR 7462[CompoundID]

> <resultIndex>
15

> <resultRange>
1-176

> <textQuery>
7628,244,25059,7618,7641,5053,637511,7714,7762,25429,8842,7794,637566,7843,174,7870,86102,7888,7896,1140,8042,8058,8078,8087,8117,8133,115224,8175,8194,445639,4944,8294,93541,8360,8363,656612,125098,3
352,3303913,64805,31200,1712058,31236,31239,31265,31266,31276,6950273,518659,14896,14798,14829,14830,8635,23266,4284,8693,22311,8759,8785,2723810,8857,3893,9936739,516892,5430,9017,15433,107720,955208
1,164825,10275455,16666,9839306,5282227,23676745,32881,91581,39800,33344,15962220,33528,5365075,62829,162381,517202,6433353,2730,5372405,36081,3120,3017,2969,18827,19518,19658,38283,2758,10112,10340,7
12,5794,3347,104150,2912,2450,40326,40585,517055,10913,108242,62097,41679,54680676,62118,753,1030,23673837,54678504,11442,11463,22230,440917,6054,43234,22629,3039,2735067,6144,702,284,176,91688,22947,
47445,1711973,243,10342051,5281875,3776,6224,104926,8755,338,123622,23954,6334,2537,24261,23665760,83975,784,24437,5360315,311,6549,107689,17100,24976875,6654,71245,6442842,62334,54698175,6328154,2476
2,440950,7017,5281873,323,5281167,7175,7292,6335613,7456,7462

$$$$
6,433,353
  SciTegic10191915303D

 60 59  0  0  0  0            999 V2000
   -1.1970    3.4430   -0.9380 O   0  0
   -3.6000   -0.6170    0.9300 O   0  0
   -1.1640    2.0350    0.8050 O   0  0
   -2.3600    0.0230   -0.8220 O   0  0
    2.9350    5.1600   -3.0630 C   0  0
   -3.1100   -5.0610    3.0660 C   0  0
    4.4650    5.1580   -3.0610 C   0  0
   -2.3730   -6.4010    3.0620 C   0  0
    2.3420    4.2750   -1.9670 C   0  0
   -2.6230   -4.1190    1.9630 C   0  0
    5.0590    6.0430   -4.1560 C   0  0
   -2.8600   -7.3440    4.1640 C   0  0
    0.8120    4.2770   -1.9690 C   0  0
   -3.3600   -2.7770    1.9670 C   0  0
    6.5880    6.0410   -4.1520 C   0  0
   -2.1170   -8.6820    4.1660 C   0  0
    0.2210    3.3910   -0.8730 C   0  0
   -2.8730   -1.8360    0.8650 C   0  0
    7.1820    6.9260   -5.2500 C   0  0
   -2.6080   -9.6250    5.2620 C   0  0
   -1.7760    2.6910   -0.0060 C   0  0
   -3.2230    0.2480   -0.0060 C   0  0
   -3.2420    2.6910   -0.0060 C   0  0
   -3.9280    1.5350   -0.0060 C   0  0
   -3.7050    3.6660   -0.0060 H   0  0
   -5.0040    1.6350   -0.0060 H   0  0
    2.5530    6.1780   -2.9860 H   0  0
    2.5530    4.8710   -4.0410 H   0  0
   -3.0350   -4.5820    4.0430 H   0  0
   -4.1860   -5.2130    2.9960 H   0  0
    4.8500    4.1410   -3.1370 H   0  0
    4.8500    5.4450   -2.0820 H   0  0
   -2.4450   -6.8790    2.0860 H   0  0
   -1.2950   -6.2480    3.1330 H   0  0
    2.7270    3.2580   -2.0430 H   0  0
    2.7270    4.5630   -0.9880 H   0  0
   -2.6970   -4.5960    0.9860 H   0  0
   -1.5470   -3.9670    2.0330 H   0  0
    4.6740    7.0610   -4.0800 H   0  0
    4.6740    5.7540   -5.1350 H   0  0
   -2.7890   -6.8630    5.1410 H   0  0
   -3.9360   -7.5000    4.0900 H   0  0
    0.4300    5.2950   -1.8930 H   0  0
    0.4300    3.9880   -2.9470 H   0  0
   -3.2850   -2.3010    2.9430 H   0  0
   -4.4360   -2.9300    1.8960 H   0  0
    6.9710    5.0230   -4.2290 H   0  0
    6.9710    6.3300   -3.1740 H   0  0
   -2.1820   -9.1580    3.1870 H   0  0
   -1.0410   -8.5260    4.2440 H   0  0
    0.5290    2.3550   -1.0060 H   0  0
    0.5290    3.7380    0.1130 H   0  0
   -3.0350   -2.2770   -0.1190 H   0  0
   -1.8150   -1.6090    0.9900 H   0  0
    8.2720    6.9140   -5.2350 H   0  0
    6.8570    7.9590   -5.1270 H   0  0
    6.8570    6.5900   -6.2350 H   0  0
   -2.0590  -10.5670    5.2340 H   0  0
   -2.4830   -9.1720    6.2460 H   0  0
   -3.6660   -9.8540    5.1310 H   0  0
  1 17  1  0
  1 21  1  0
  2 18  1  0
  2 22  1  0
  3 21  2  0
  4 22  2  0
  5  7  1  0
  5  9  1  0
  6  8  1  0
  6 10  1  0
  7 11  1  0
  8 12  1  0
  9 13  1  0
 10 14  1  0
 11 15  1  0
 12 16  1  0
 13 17  1  0
 14 18  1  0
 15 19  1  0
 16 20  1  0
 21 23  1  0
 22 24  1  0
 23 24  2  0
 23 25  1  0
 24 26  1  0
  5 27  1  0
  5 28  1  0
  6 29  1  0
  6 30  1  0
  7 31  1  0
  7 32  1  0
  8 33  1  0
  8 34  1  0
  9 35  1  0
  9 36  1  0
 10 37  1  0
 10 38  1  0
 11 39  1  0
 11 40  1  0
 12 41  1  0
 12 42  1  0
 13 43  1  0
 13 44  1  0
 14 45  1  0
 14 46  1  0
 15 47  1  0
 15 48  1  0
 16 49  1  0
 16 50  1  0
 17 51  1  0
 17 52  1  0
 18 53  1  0
 18 54  1  0
 19 55  1  0
 19 56  1  0
 19 57  1  0
 20 58  1  0
 20 59  1  0
 20 60  1  0
M  END
> <Name>
6,433,353

> <OBJECTID>
9223372105577594891

> <ActiveAidCount>
0

> <AtomChiralCount>
0

> <AtomChiralDefCount>
0

> <AtomChiralUndefCount>
0

> <BondChiralCount>
1

> <BondChiralDefCount>
1

> <BondChiralUndefCount>
0

> <CID>
6433353

> <CanonicalSmiles>
CCCCCCCCOC(=O)C=CC(=O)OCCCCCCCC

> <Complexity>
305

> <CovalentUnitCount>
1

> <CreateDate>
2006/04/28 00:00

> <HeavyAtomCount>
24

> <HydrogenBondAcceptorCount>
4

> <HydrogenBondDonorCount>
0

> <IUPACName>
dioctyl (Z)-but-2-enedioate

> <InChI>
InChI=1S/C20H36O4/c1-3-5-7-9-11-13-17-23-19(21)15-16-20(22)24-18-14-12-10-8-6-4-2/h15-16H,3-14,17-18H2,1-2H3/b16-15-

> <InChIKey>
TVWTZAGVNBPXHU-NXVVXOECSA-N

> <IsomericSmiles>
CCCCCCCCOC(=O)/C=C\C(=O)OCCCCCCCC

> <IsotopeAtomCount>
0

> <MeSHHeading>
dioctyl maleate

> <MeSHTerm>
dioctyl maleate
dicaprylyl maleate

> <MolecularFormula>
C20H36O4

> <MolecularWeight>
340.5

> <RotatableBondCount>
18

> <Smiles>
O(C(\C([H])=C([H])/C(=O)OCCCCCCCC)=O)CCCCCCCC

> <SourceCategory>
Legacy Depositors
Chemical Vendors
Curation Efforts
Governmental Organizations
Subscription Services
Journal Publishers
Research and Development

> <Synonym>
Dioctyl maleate
2915-53-9
Di-n-octyl maleate
Bis(1-octyl) maleate
UNII-OD88G8439L
2-Butenedioic acid (2Z)-, dioctyl ester
MALEIC ACID, DIOCTYL ESTER
EINECS 220-835-6
PX-538
dioctyl (Z)-but-2-enedioate
OD88G8439L
Fumaric acid, dioctyl ester
2-Butenedioic acid (Z)-, dioctyl ester
AK114538
AC1O5G2A
dioctyl maleate, AldrichCPR
SCHEMBL33823
dioctyl (2Z)-but-2-enedioate
Jsp005560
DTXSID1027508
TVWTZAGVNBPXHU-NXVVXOECSA-N
MFCD00072705
AKOS016010277
ZINC100004767
MP-2199
AN-20193
LS-88647
O647
AX8125760
ST2412840
2-Butenedioic acid (Z)-, dioctyl ester (9CI)
I14-13906

> <TPSA>
52.6

> <TotalAidCount>
0

> <TotalFormalCharge>
0

> <XLogP>
7

> <database>
PubChem Compound

> <matchingCount>
176

> <primaryID>
6433353

> <queryTranslation>
7628[CompoundID] OR 244[CompoundID] OR 25059[CompoundID] OR 7618[CompoundID] OR 7641[CompoundID] OR 5053[CompoundID] OR 637511[CompoundID] OR 7714[CompoundID] OR 7762[CompoundID] OR 25429[CompoundID]
OR 8842[CompoundID] OR 7794[CompoundID] OR 637566[CompoundID] OR 7843[CompoundID] OR 174[CompoundID] OR 7870[CompoundID] OR 86102[CompoundID] OR 7888[CompoundID] OR 7896[CompoundID] OR 1140[CompoundID
] OR 8042[CompoundID] OR 8058[CompoundID] OR 8078[CompoundID] OR 8087[CompoundID] OR 8117[CompoundID] OR 8133[CompoundID] OR 115224[CompoundID] OR 8175[CompoundID] OR 8194[CompoundID] OR 445639[Compou
ndID] OR 4944[CompoundID] OR 8294[CompoundID] OR 93541[CompoundID] OR 8360[CompoundID] OR 8363[CompoundID] OR 656612[CompoundID] OR 125098[CompoundID] OR 3352[CompoundID] OR 3303913[CompoundID] OR 648
05[CompoundID] OR 31200[CompoundID] OR 1712058[CompoundID] OR 31236[CompoundID] OR 31239[CompoundID] OR 31265[CompoundID] OR 31266[CompoundID] OR 31276[CompoundID] OR 6950273[CompoundID] OR 518659[Com
poundID] OR 14896[CompoundID] OR 14798[CompoundID] OR 14829[CompoundID] OR 14830[CompoundID] OR 8635[CompoundID] OR 23266[CompoundID] OR 4284[CompoundID] OR 8693[CompoundID] OR 22311[CompoundID] OR 87
59[CompoundID] OR 8785[CompoundID] OR 2723810[CompoundID] OR 8857[CompoundID] OR 3893[CompoundID] OR 9936739[CompoundID] OR 516892[CompoundID] OR 5430[CompoundID] OR 9017[CompoundID] OR 15433[Compound
ID] OR 107720[CompoundID] OR 9552081[CompoundID] OR 164825[CompoundID] OR 10275455[CompoundID] OR 16666[CompoundID] OR 9839306[CompoundID] OR 5282227[CompoundID] OR 23676745[CompoundID] OR 32881[Compo
undID] OR 91581[CompoundID] OR 39800[CompoundID] OR 33344[CompoundID] OR 15962220[CompoundID] OR 33528[CompoundID] OR 5365075[CompoundID] OR 62829[CompoundID] OR 162381[CompoundID] OR 517202[CompoundI
D] OR 6433353[CompoundID] OR 2730[CompoundID] OR 5372405[CompoundID] OR 36081[CompoundID] OR 3120[CompoundID] OR 3017[CompoundID] OR 2969[CompoundID] OR 18827[CompoundID] OR 19518[CompoundID] OR 19658
[CompoundID] OR 38283[CompoundID] OR 2758[CompoundID] OR 10112[CompoundID] OR 10340[CompoundID] OR 712[CompoundID] OR 5794[CompoundID] OR 3347[CompoundID] OR 104150[CompoundID] OR 2912[CompoundID] OR
2450[CompoundID] OR 40326[CompoundID] OR 40585[CompoundID] OR 517055[CompoundID] OR 10913[CompoundID] OR 108242[CompoundID] OR 62097[CompoundID] OR 41679[CompoundID] OR 54680676[CompoundID] OR 62118[C
ompoundID] OR 753[CompoundID] OR 1030[CompoundID] OR 23673837[CompoundID] OR 54678504[CompoundID] OR 11442[CompoundID] OR 11463[CompoundID] OR 22230[CompoundID] OR 440917[CompoundID] OR 6054[CompoundI
D] OR 43234[CompoundID] OR 22629[CompoundID] OR 3039[CompoundID] OR 2735067[CompoundID] OR 6144[CompoundID] OR 702[CompoundID] OR 284[CompoundID] OR 176[CompoundID] OR 91688[CompoundID] OR 22947[Compo
undID] OR 47445[CompoundID] OR 1711973[CompoundID] OR 243[CompoundID] OR 10342051[CompoundID] OR 5281875[CompoundID] OR 3776[CompoundID] OR 6224[CompoundID] OR 104926[CompoundID] OR 8755[CompoundID] O
R 338[CompoundID] OR 123622[CompoundID] OR 23954[CompoundID] OR 6334[CompoundID] OR 2537[CompoundID] OR 24261[CompoundID] OR 23665760[CompoundID] OR 83975[CompoundID] OR 784[CompoundID] OR 24437[Compo
undID] OR 5360315[CompoundID] OR 311[CompoundID] OR 6549[CompoundID] OR 107689[CompoundID] OR 17100[CompoundID] OR 24976875[CompoundID] OR 6654[CompoundID] OR 71245[CompoundID] OR 6442842[CompoundID]
OR 62334[CompoundID] OR 54698175[CompoundID] OR 6328154[CompoundID] OR 24762[CompoundID] OR 440950[CompoundID] OR 7017[CompoundID] OR 5281873[CompoundID] OR 323[CompoundID] OR 5281167[CompoundID] OR 7
175[CompoundID] OR 7292[CompoundID] OR 6335613[CompoundID] OR 7456[CompoundID] OR 7462[CompoundID]

> <resultIndex>
16

> <resultRange>
1-176

> <textQuery>
7628,244,25059,7618,7641,5053,637511,7714,7762,25429,8842,7794,637566,7843,174,7870,86102,7888,7896,1140,8042,8058,8078,8087,8117,8133,115224,8175,8194,445639,4944,8294,93541,8360,8363,656612,125098,3
352,3303913,64805,31200,1712058,31236,31239,31265,31266,31276,6950273,518659,14896,14798,14829,14830,8635,23266,4284,8693,22311,8759,8785,2723810,8857,3893,9936739,516892,5430,9017,15433,107720,955208
1,164825,10275455,16666,9839306,5282227,23676745,32881,91581,39800,33344,15962220,33528,5365075,62829,162381,517202,6433353,2730,5372405,36081,3120,3017,2969,18827,19518,19658,38283,2758,10112,10340,7
12,5794,3347,104150,2912,2450,40326,40585,517055,10913,108242,62097,41679,54680676,62118,753,1030,23673837,54678504,11442,11463,22230,440917,6054,43234,22629,3039,2735067,6144,702,284,176,91688,22947,
47445,1711973,243,10342051,5281875,3776,6224,104926,8755,338,123622,23954,6334,2537,24261,23665760,83975,784,24437,5360315,311,6549,107689,17100,24976875,6654,71245,6442842,62334,54698175,6328154,2476
2,440950,7017,5281873,323,5281167,7175,7292,6335613,7456,7462

$$$$
6,335,613
  SciTegic10191915303D

 21 20  0  0  0  0            999 V2000
    0.4530   -1.9670    0.1000 O   0  0
    0.1990   -0.8580   -2.3590 O   0  0
    0.8120    1.0700   -1.3960 O   0  0
    2.6420    1.1990    0.6100 O   0  0
   -1.7800    1.6230   -0.6330 O   0  0
    2.6990   -0.7600    1.6960 O   0  0
   -2.8890    0.9020    1.1760 O   0  0
   -0.0120   -0.6390    0.0180 C   0  0
    0.5700    0.1460    1.1920 C   0  0
   -1.5410   -0.6680    0.0280 C   0  0
    0.3750   -0.0530   -1.3140 C   0  0
    2.0760    0.1460    1.1920 C   0  0
   -2.1390    0.6950    0.2500 C   0  0
   -0.0240   -2.4810   -0.5700 H   0  0
    0.4290   -0.5410   -3.2420 H   0  0
    3.6050    1.2600    0.5740 H   0  0
   -2.1290    2.5190   -0.5450 H   0  0
    0.2010   -0.3420    2.0940 H   0  0
    0.2010    1.1720    1.1920 H   0  0
   -1.8250   -1.3340    0.8400 H   0  0
   -1.9240   -1.0920   -0.9000 H   0  0
  1  8  1  0
  2 11  1  0
  3 11  2  0
  4 12  1  0
  5 13  1  0
  6 12  2  0
  7 13  2  0
  8  9  1  0
  8 10  1  0
  8 11  1  0
  9 12  1  0
 10 13  1  0
  1 14  1  0
  2 15  1  0
  4 16  1  0
  5 17  1  0
  9 18  1  0
  9 19  1  0
 10 20  1  0
 10 21  1  0
M  END
> <Name>
6,335,613

> <OBJECTID>
9223372109872562187

> <ActiveAidCount>
0

> <AtomChiralCount>
0

> <AtomChiralDefCount>
0

> <AtomChiralUndefCount>
0

> <BondChiralCount>
0

> <BondChiralDefCount>
0

> <BondChiralUndefCount>
0

> <CID>
6335613

> <CanonicalSmiles>
C(C(=O)O)C(CC(=O)O)(C(=O)O)O.[Na]

> <Complexity>
227

> <CovalentUnitCount>
2

> <CreateDate>
2005/08/08 00:00

> <HeavyAtomCount>
14

> <HydrogenBondAcceptorCount>
7

> <HydrogenBondDonorCount>
4

> <IUPACName>
2-hydroxypropane-1,2,3-tricarboxylic acid;sodium

> <InChI>
InChI=1S/C6H8O7.Na/c7-3(8)1-6(13,5(11)12)2-4(9)10;/h13H,1-2H2,(H,7,8)(H,9,10)(H,11,12);

> <InChIKey>
OQUFOZNPBIIJTN-UHFFFAOYSA-N

> <IsomericSmiles>
C(C(=O)O)C(CC(=O)O)(C(=O)O)O.[Na]

> <IsotopeAtomCount>
0

> <MolecularFormula>
C6H8NaO7

> <MolecularWeight>
215.11

> <RotatableBondCount>
5

> <Smiles>
[Na].OC(C(=O)O)(CC(=O)O)CC(=O)O

> <SourceCategory>
Research and Development
Curation Efforts
Subscription Services
Legacy Depositors
Chemical Vendors
Governmental Organizations

> <Synonym>
CITRIC ACID, SODIUM SALT
1,2,3-Propanetricarboxylic acid, 2-hydroxy-, sodium salt
Bicitra
Pneucid
994-36-5
citric acid sodium
EINECS 213-618-2
AC1O3RSO
E 331
Sodium 2-hydroxy-1,2,3-propanetricarboxylate
SCHEMBL3659
SCHEMBL11235127
OQUFOZNPBIIJTN-UHFFFAOYSA-N
1,2,3-Propanetricarboxylic acid, 2-hydroxy-, sodium salt (1:?)
2-hydroxypropane-1,2,3-tricarboxylic acid; sodium

> <TPSA>
132

> <TotalAidCount>
0

> <TotalFormalCharge>
0

> <database>
PubChem Compound

> <matchingCount>
176

> <primaryID>
6335613

> <queryTranslation>
7628[CompoundID] OR 244[CompoundID] OR 25059[CompoundID] OR 7618[CompoundID] OR 7641[CompoundID] OR 5053[CompoundID] OR 637511[CompoundID] OR 7714[CompoundID] OR 7762[CompoundID] OR 25429[CompoundID]
OR 8842[CompoundID] OR 7794[CompoundID] OR 637566[CompoundID] OR 7843[CompoundID] OR 174[CompoundID] OR 7870[CompoundID] OR 86102[CompoundID] OR 7888[CompoundID] OR 7896[CompoundID] OR 1140[CompoundID
] OR 8042[CompoundID] OR 8058[CompoundID] OR 8078[CompoundID] OR 8087[CompoundID] OR 8117[CompoundID] OR 8133[CompoundID] OR 115224[CompoundID] OR 8175[CompoundID] OR 8194[CompoundID] OR 445639[Compou
ndID] OR 4944[CompoundID] OR 8294[CompoundID] OR 93541[CompoundID] OR 8360[CompoundID] OR 8363[CompoundID] OR 656612[CompoundID] OR 125098[CompoundID] OR 3352[CompoundID] OR 3303913[CompoundID] OR 648
05[CompoundID] OR 31200[CompoundID] OR 1712058[CompoundID] OR 31236[CompoundID] OR 31239[CompoundID] OR 31265[CompoundID] OR 31266[CompoundID] OR 31276[CompoundID] OR 6950273[CompoundID] OR 518659[Com
poundID] OR 14896[CompoundID] OR 14798[CompoundID] OR 14829[CompoundID] OR 14830[CompoundID] OR 8635[CompoundID] OR 23266[CompoundID] OR 4284[CompoundID] OR 8693[CompoundID] OR 22311[CompoundID] OR 87
59[CompoundID] OR 8785[CompoundID] OR 2723810[CompoundID] OR 8857[CompoundID] OR 3893[CompoundID] OR 9936739[CompoundID] OR 516892[CompoundID] OR 5430[CompoundID] OR 9017[CompoundID] OR 15433[Compound
ID] OR 107720[CompoundID] OR 9552081[CompoundID] OR 164825[CompoundID] OR 10275455[CompoundID] OR 16666[CompoundID] OR 9839306[CompoundID] OR 5282227[CompoundID] OR 23676745[CompoundID] OR 32881[Compo
undID] OR 91581[CompoundID] OR 39800[CompoundID] OR 33344[CompoundID] OR 15962220[CompoundID] OR 33528[CompoundID] OR 5365075[CompoundID] OR 62829[CompoundID] OR 162381[CompoundID] OR 517202[CompoundI
D] OR 6433353[CompoundID] OR 2730[CompoundID] OR 5372405[CompoundID] OR 36081[CompoundID] OR 3120[CompoundID] OR 3017[CompoundID] OR 2969[CompoundID] OR 18827[CompoundID] OR 19518[CompoundID] OR 19658
[CompoundID] OR 38283[CompoundID] OR 2758[CompoundID] OR 10112[CompoundID] OR 10340[CompoundID] OR 712[CompoundID] OR 5794[CompoundID] OR 3347[CompoundID] OR 104150[CompoundID] OR 2912[CompoundID] OR
2450[CompoundID] OR 40326[CompoundID] OR 40585[CompoundID] OR 517055[CompoundID] OR 10913[CompoundID] OR 108242[CompoundID] OR 62097[CompoundID] OR 41679[CompoundID] OR 54680676[CompoundID] OR 62118[C
ompoundID] OR 753[CompoundID] OR 1030[CompoundID] OR 23673837[CompoundID] OR 54678504[CompoundID] OR 11442[CompoundID] OR 11463[CompoundID] OR 22230[CompoundID] OR 440917[CompoundID] OR 6054[CompoundI
D] OR 43234[CompoundID] OR 22629[CompoundID] OR 3039[CompoundID] OR 2735067[CompoundID] OR 6144[CompoundID] OR 702[CompoundID] OR 284[CompoundID] OR 176[CompoundID] OR 91688[CompoundID] OR 22947[Compo
undID] OR 47445[CompoundID] OR 1711973[CompoundID] OR 243[CompoundID] OR 10342051[CompoundID] OR 5281875[CompoundID] OR 3776[CompoundID] OR 6224[CompoundID] OR 104926[CompoundID] OR 8755[CompoundID] O
R 338[CompoundID] OR 123622[CompoundID] OR 23954[CompoundID] OR 6334[CompoundID] OR 2537[CompoundID] OR 24261[CompoundID] OR 23665760[CompoundID] OR 83975[CompoundID] OR 784[CompoundID] OR 24437[Compo
undID] OR 5360315[CompoundID] OR 311[CompoundID] OR 6549[CompoundID] OR 107689[CompoundID] OR 17100[CompoundID] OR 24976875[CompoundID] OR 6654[CompoundID] OR 71245[CompoundID] OR 6442842[CompoundID]
OR 62334[CompoundID] OR 54698175[CompoundID] OR 6328154[CompoundID] OR 24762[CompoundID] OR 440950[CompoundID] OR 7017[CompoundID] OR 5281873[CompoundID] OR 323[CompoundID] OR 5281167[CompoundID] OR 7
175[CompoundID] OR 7292[CompoundID] OR 6335613[CompoundID] OR 7456[CompoundID] OR 7462[CompoundID]

> <resultIndex>
17

> <resultRange>
1-176

> <textQuery>
7628,244,25059,7618,7641,5053,637511,7714,7762,25429,8842,7794,637566,7843,174,7870,86102,7888,7896,1140,8042,8058,8078,8087,8117,8133,115224,8175,8194,445639,4944,8294,93541,8360,8363,656612,125098,3
352,3303913,64805,31200,1712058,31236,31239,31265,31266,31276,6950273,518659,14896,14798,14829,14830,8635,23266,4284,8693,22311,8759,8785,2723810,8857,3893,9936739,516892,5430,9017,15433,107720,955208
1,164825,10275455,16666,9839306,5282227,23676745,32881,91581,39800,33344,15962220,33528,5365075,62829,162381,517202,6433353,2730,5372405,36081,3120,3017,2969,18827,19518,19658,38283,2758,10112,10340,7
12,5794,3347,104150,2912,2450,40326,40585,517055,10913,108242,62097,41679,54680676,62118,753,1030,23673837,54678504,11442,11463,22230,440917,6054,43234,22629,3039,2735067,6144,702,284,176,91688,22947,
47445,1711973,243,10342051,5281875,3776,6224,104926,8755,338,123622,23954,6334,2537,24261,23665760,83975,784,24437,5360315,311,6549,107689,17100,24976875,6654,71245,6442842,62334,54698175,6328154,2476
2,440950,7017,5281873,323,5281167,7175,7292,6335613,7456,7462

$$$$
6,328,154
  SciTegic10191915303D

 24 23  0  0  1  0            999 V2000
   -0.1880   -0.8850   -1.5610 O   0  0
    0.9300    0.4690    1.5880 O   0  0
    0.3100    1.8630   -2.2250 O   0  0
    2.2150   -1.8050    0.6970 O   0  0
   -2.1020    2.7600   -0.9610 O   0  0
   -0.0370   -3.2790    2.6430 O   0  0
    0.4590    0.0330   -0.7070 C   0  0  3  0  0  0
    0.2640   -0.4360    0.7340 C   0  0  3  0  0  0
   -0.1310    1.4200   -0.9610 C   0  0  3  0  0  0
    0.8340   -1.8340    0.9820 C   0  0  3  0  0  0
   -1.6600    1.4200   -0.9610 C   0  0
    0.6250   -2.2950    2.4000 C   0  0
    0.2130   -0.7890   -2.4380 H   0  0
    0.2890    1.1540    1.8340 H   0  0
    0.2320    2.8300   -2.2320 H   0  0
    2.5310   -2.7210    0.7230 H   0  0
   -3.0700    2.7420   -0.9610 H   0  0
    1.5180    0.0510   -0.9670 H   0  0
   -0.7990   -0.4060    0.9730 H   0  0
    0.2190    2.1310   -0.2110 H   0  0
    0.3670   -2.5630    0.3220 H   0  0
   -2.0450    0.9380   -1.8570 H   0  0
   -2.0450    0.9380   -0.0630 H   0  0
    1.0720   -1.7360    3.2070 H   0  0
  1  7  1  0
  2  8  1  0
  3  9  1  0
  4 10  1  0
  5 11  1  0
  6 12  2  0
  7  8  1  0
  7  9  1  0
  8 10  1  0
  9 11  1  0
 10 12  1  0
  1 13  1  0
  2 14  1  0
  3 15  1  0
  4 16  1  0
  5 17  1  0
  7 18  1  0
  8 19  1  0
  9 20  1  0
 10 21  1  0
 11 22  1  0
 11 23  1  0
 12 24  1  0
M  END
> <Name>
6,328,154

> <OBJECTID>
9223372114167529483

> <ActiveAidCount>
0

> <AtomChiralCount>
4

> <AtomChiralDefCount>
0

> <AtomChiralUndefCount>
4

> <BondChiralCount>
0

> <BondChiralDefCount>
0

> <BondChiralUndefCount>
0

> <CID>
6328154

> <CanonicalSmiles>
CC(=O)O.C(C(C(C(C(C=O)O)O)O)O)O.[Na]

> <Complexity>
169

> <CovalentUnitCount>
3

> <CreateDate>
2005/08/08 00:00

> <HeavyAtomCount>
17

> <HydrogenBondAcceptorCount>
8

> <HydrogenBondDonorCount>
6

> <IUPACName>
acetic acid;2,3,4,5,6-pentahydroxyhexanal;sodium

> <InChI>
InChI=1S/C6H12O6.C2H4O2.Na/c7-1-3(9)5(11)6(12)4(10)2-8;1-2(3)4;/h1,3-6,8-12H,2H2;1H3,(H,3,4);

> <InChIKey>
DPXJVFZANSGRMM-UHFFFAOYSA-N

> <IsomericSmiles>
CC(=O)O.C(C(C(C(C(C=O)O)O)O)O)O.[Na]

> <IsotopeAtomCount>
0

> <MeSHHeading>
Carboxymethylcellulose Sodium

> <MeSHTerm>
Aquacel
Carboxymethyl Cellulose
Carboxymethylcellulose, Sodium
Cellulose, Carboxymethyl
Ruspol
Sodium, Carboxymethylcellulose
carmellose sodium
Polycell
Sodium, Carmellose
Sodium Carboxymethylcellulose
Sodium, Croscarmellose
Aquaplast
Cethylose
Croscarmellose Sodium
Carboxymethylcellulose
Carboxymethylcellulose Sodium
Cellolax

> <MolecularFormula>
C8H16NaO8

> <MolecularWeight>
263.2

> <PharmAction>
Chemical Actions and Uses
Gastrointestinal Agents
Therapeutic Uses
Laxatives
Pharmacologic Actions

> <RotatableBondCount>
5

> <Smiles>
[Na].OC(C(CO)O)C(C(C=O)O)O.OC(C)=O

> <SourceCategory>
Chemical Vendors
Subscription Services
Legacy Depositors
Governmental Organizations
Research and Development
Curation Efforts

> <Synonym>
Aquaplast
Carmethose
Cellofas
Cellpro
Cellufresh
Cellugel
Celluvisc
Collowel
Ethoxose
Lovosa
Carboxymethylcellulose sodium
Carmellose gum
Camellose gum
Cellulose gum
Sarcell tel
Cellofas B
Cellofas C
Cellogel C
Cellogen PR
Glikocel TA
CMC sodium salt
Edifas B
Nymcel S
Tylose C
Blanose BWM
Lovosa TN
Nymcel slc-T
Tylose CB series
Tylose CR
Unisol RH
Cellofas B5
Cellofas B6
Cellogen 3H
Sodium CMC
Tylose DKL
Carbose 1M
Cellogen WS-C
Majol PLX
Sodium cellulose glycolate
Cellofas B50
Courlose F 4
Courlose F 8
Polyfibron 120
Tylose CBR series
Avicel RC/CL
Fine Gum HES
NaCm-cellulose salt
Courlose F 20
Sodium CM-cellulose
Sodium carboxymethylcellulose
Copagel PB 25
Sanlose SN 20A
Cellufix FF 100
Courlose A 590
Courlose A 610
Courlose A 650
Courlose F 370
Modocoll 1200
Nymcel ZSB 10
Nymcel ZSB 16
Tylose CBS 30
Tylose CBS 70
Tylose CR 50
Tylose 666
Tylose C 30
Blanose BS 190
SODIUM CARBOXYMETHYL CELLULOSE
AC-Di-sol. NF
Lucel (polysaccharide)
Tylose CBR 400
Courlose F 1000G
Tylose C 300
Tylose C 600
Tylose CB 200
Daicel 1150
Daicel 1180
Orabase
Tylose C 1000P
B 10 (Polysaccharide)
Carboxymethylcellulose sodium salt
CM-Cellulose sodium salt
Cellulose sodium glycolate
Sodium glycolate cellulose
CMC 7MT
Cellulose, carboxymethyl ether, sodium salt
CMC 7H
CMC 7H3SF
CMC 7M
Sodium carboxmethylcellulose
Carboxymethyl cellulose, sodium salt
CMC 3M5T
7H3SF
CMC 2
Aku-W 515
KMTs 212
KMTs 300
KMTs 500
KMTs 600
CMC 41A
CMC 4H1
CMC 4M6
CMC 7L1
CCRIS 3653
Cellulose carboxymethyl ether sodium salt
S 75M
CARBOXYMETHYL CELLULOSE
Cellulose glycolic acid, sodium salt
Sodium salt of carboxymethylcellulose
B 10
Carmellose sodium, low-substituted
9004-32-4
Cellulose, carboxymethyl ether
Aquacel
Cellulose carboxymethyl ether, sodium salt
Carboxymethylcellulose sodium [USP]
Carmellose sodium
acetic acid; 2,3,4,5,6-pentahydroxyhexanal; sodium
Croscarmellose sodium
Cellulose, carboxymethyl ether, sodium salt, low-substituted
Lovosa 20alk.
UNII-E0DNV5JJHX
UNII-6ZQ8V6YVNK
UNII-6YYV7VRE59
UNII-72QQR5RYU4
UNII-D7SXM450NR
UNII-FC40A8XAJ3
UNII-M8VP63K8FU
UNII-RYZ9SHL900
UNII-Y3R0RA1Q8S
UNII-YGX74DKE74
UNII-0Z2R7OG99L
UNII-8UX21M67IJ
UNII-8W25JI0G3V
UNII-M9J9397QWS
UNII-R05Y0B55JY
UNII-S5517JT8YS
UNII-V5U74HSL76
UNII-X075FT70UI
UNII-ZY4732LP1O
UNII-0891BL4S3D
UNII-1RD48779FJ
UNII-379M03VC9O
UNII-4J4P6L645M
UNII-75KU4500GF
UNII-97W605BIK0
UNII-99H65D77XY
UNII-K679OBS311
UNII-93O70285VH
UNII-KX442849T5
Lovosa 20alk
Carboxymethylcellulose Sodium [USAN]
E0DNV5JJHX
6ZQ8V6YVNK
AC1O3H0P
6YYV7VRE59
72QQR5RYU4
D7SXM450NR
FC40A8XAJ3
M8VP63K8FU
RYZ9SHL900
Y3R0RA1Q8S
YGX74DKE74
SCHEMBL454741
0Z2R7OG99L
8UX21M67IJ
8W25JI0G3V
M9J9397QWS
R05Y0B55JY
S5517JT8YS
V5U74HSL76
X075FT70UI
ZY4732LP1O
Refresh Plus, Cellufresh Formula
0891BL4S3D
1RD48779FJ
379M03VC9O
4J4P6L645M
75KU4500GF
97W605BIK0
99H65D77XY
K679OBS311
Sodium Carboxymethylcellulose, FCC
AKOS015915206
93O70285VH
KX442849T5
LS-2472
9085-26-1
AN-19454
SC-71860
FT-0623482
2212-EP2269989A1
2212-EP2269999A1
2212-EP2270002A1
2212-EP2270007A1
2212-EP2272517A1
2212-EP2272822A1
2212-EP2272832A1
2212-EP2272841A1
2212-EP2272843A1
2212-EP2272846A1
2212-EP2275413A1
2212-EP2275422A1
2212-EP2277565A2
2212-EP2277566A2
2212-EP2277567A1
2212-EP2277568A2
2212-EP2277569A2
2212-EP2277570A2
2212-EP2277848A1
2212-EP2277861A1
2212-EP2277868A1
2212-EP2277869A1
2212-EP2277870A1
2212-EP2279741A2
2212-EP2280000A1
2212-EP2280010A2
2212-EP2281810A1
2212-EP2281817A1
2212-EP2281823A2
2212-EP2284166A1
2212-EP2284169A1
2212-EP2287156A1
2212-EP2287158A1
2212-EP2287160A1
2212-EP2287161A1
2212-EP2287162A1
2212-EP2289893A1
2212-EP2289896A1
2212-EP2292227A2
2212-EP2292280A1
2212-EP2292592A1
2212-EP2292608A1
2212-EP2292622A1
2212-EP2295061A1
2212-EP2295402A2
2212-EP2295406A1
2212-EP2295414A1
2212-EP2295422A2
2212-EP2295426A1
2212-EP2295427A1
2212-EP2295437A1
2212-EP2295439A1
2212-EP2298076A1
2212-EP2298077A1
2212-EP2298305A1
2212-EP2298734A2
2212-EP2298735A1
2212-EP2298746A1
2212-EP2298767A1
2212-EP2298769A1
2212-EP2298772A1
2212-EP2298775A1
2212-EP2301353A1
2212-EP2301934A1
2212-EP2305031A1
2212-EP2305033A1
2212-EP2305034A1
2212-EP2305035A1
2212-EP2305219A1
2212-EP2305243A1
2212-EP2305250A1
2212-EP2305673A1
2212-EP2308839A1
2212-EP2308861A1
2212-EP2308864A1
2212-EP2308866A1
2212-EP2308872A1
2212-EP2308873A1
2212-EP2308875A1
2212-EP2308877A1
2212-EP2308878A2
2212-EP2311806A2
2212-EP2311807A1
2212-EP2311809A1
2212-EP2311825A1
2212-EP2311831A1
2212-EP2311834A1
2212-EP2311837A1
2212-EP2311842A2
2212-EP2314584A1
2212-EP2314587A1
2212-EP2316470A2
2212-EP2316829A1
2212-EP2316831A1
2212-EP2316834A1
2212-EP2316836A1
2212-EP2371811A2
2212-EP2374454A1
2212-EP2374791A1
2212-EP2375479A1
2212-EP2380661A2
I14-6972
CARBOXYMETHYLCELLULOSE SODIUM, LOW-SUBSTITUTED
117385-93-0

> <TPSA>
156

> <TotalAidCount>
1

> <TotalFormalCharge>
0

> <database>
PubChem Compound

> <matchingCount>
176

> <primaryID>
6328154

> <queryTranslation>
7628[CompoundID] OR 244[CompoundID] OR 25059[CompoundID] OR 7618[CompoundID] OR 7641[CompoundID] OR 5053[CompoundID] OR 637511[CompoundID] OR 7714[CompoundID] OR 7762[CompoundID] OR 25429[CompoundID]
OR 8842[CompoundID] OR 7794[CompoundID] OR 637566[CompoundID] OR 7843[CompoundID] OR 174[CompoundID] OR 7870[CompoundID] OR 86102[CompoundID] OR 7888[CompoundID] OR 7896[CompoundID] OR 1140[CompoundID
] OR 8042[CompoundID] OR 8058[CompoundID] OR 8078[CompoundID] OR 8087[CompoundID] OR 8117[CompoundID] OR 8133[CompoundID] OR 115224[CompoundID] OR 8175[CompoundID] OR 8194[CompoundID] OR 445639[Compou
ndID] OR 4944[CompoundID] OR 8294[CompoundID] OR 93541[CompoundID] OR 8360[CompoundID] OR 8363[CompoundID] OR 656612[CompoundID] OR 125098[CompoundID] OR 3352[CompoundID] OR 3303913[CompoundID] OR 648
05[CompoundID] OR 31200[CompoundID] OR 1712058[CompoundID] OR 31236[CompoundID] OR 31239[CompoundID] OR 31265[CompoundID] OR 31266[CompoundID] OR 31276[CompoundID] OR 6950273[CompoundID] OR 518659[Com
poundID] OR 14896[CompoundID] OR 14798[CompoundID] OR 14829[CompoundID] OR 14830[CompoundID] OR 8635[CompoundID] OR 23266[CompoundID] OR 4284[CompoundID] OR 8693[CompoundID] OR 22311[CompoundID] OR 87
59[CompoundID] OR 8785[CompoundID] OR 2723810[CompoundID] OR 8857[CompoundID] OR 3893[CompoundID] OR 9936739[CompoundID] OR 516892[CompoundID] OR 5430[CompoundID] OR 9017[CompoundID] OR 15433[Compound
ID] OR 107720[CompoundID] OR 9552081[CompoundID] OR 164825[CompoundID] OR 10275455[CompoundID] OR 16666[CompoundID] OR 9839306[CompoundID] OR 5282227[CompoundID] OR 23676745[CompoundID] OR 32881[Compo
undID] OR 91581[CompoundID] OR 39800[CompoundID] OR 33344[CompoundID] OR 15962220[CompoundID] OR 33528[CompoundID] OR 5365075[CompoundID] OR 62829[CompoundID] OR 162381[CompoundID] OR 517202[CompoundI
D] OR 6433353[CompoundID] OR 2730[CompoundID] OR 5372405[CompoundID] OR 36081[CompoundID] OR 3120[CompoundID] OR 3017[CompoundID] OR 2969[CompoundID] OR 18827[CompoundID] OR 19518[CompoundID] OR 19658
[CompoundID] OR 38283[CompoundID] OR 2758[CompoundID] OR 10112[CompoundID] OR 10340[CompoundID] OR 712[CompoundID] OR 5794[CompoundID] OR 3347[CompoundID] OR 104150[CompoundID] OR 2912[CompoundID] OR
2450[CompoundID] OR 40326[CompoundID] OR 40585[CompoundID] OR 517055[CompoundID] OR 10913[CompoundID] OR 108242[CompoundID] OR 62097[CompoundID] OR 41679[CompoundID] OR 54680676[CompoundID] OR 62118[C
ompoundID] OR 753[CompoundID] OR 1030[CompoundID] OR 23673837[CompoundID] OR 54678504[CompoundID] OR 11442[CompoundID] OR 11463[CompoundID] OR 22230[CompoundID] OR 440917[CompoundID] OR 6054[CompoundI
D] OR 43234[CompoundID] OR 22629[CompoundID] OR 3039[CompoundID] OR 2735067[CompoundID] OR 6144[CompoundID] OR 702[CompoundID] OR 284[CompoundID] OR 176[CompoundID] OR 91688[CompoundID] OR 22947[Compo
undID] OR 47445[CompoundID] OR 1711973[CompoundID] OR 243[CompoundID] OR 10342051[CompoundID] OR 5281875[CompoundID] OR 3776[CompoundID] OR 6224[CompoundID] OR 104926[CompoundID] OR 8755[CompoundID] O
R 338[CompoundID] OR 123622[CompoundID] OR 23954[CompoundID] OR 6334[CompoundID] OR 2537[CompoundID] OR 24261[CompoundID] OR 23665760[CompoundID] OR 83975[CompoundID] OR 784[CompoundID] OR 24437[Compo
undID] OR 5360315[CompoundID] OR 311[CompoundID] OR 6549[CompoundID] OR 107689[CompoundID] OR 17100[CompoundID] OR 24976875[CompoundID] OR 6654[CompoundID] OR 71245[CompoundID] OR 6442842[CompoundID]
OR 62334[CompoundID] OR 54698175[CompoundID] OR 6328154[CompoundID] OR 24762[CompoundID] OR 440950[CompoundID] OR 7017[CompoundID] OR 5281873[CompoundID] OR 323[CompoundID] OR 5281167[CompoundID] OR 7
175[CompoundID] OR 7292[CompoundID] OR 6335613[CompoundID] OR 7456[CompoundID] OR 7462[CompoundID]

> <resultIndex>
18

> <resultRange>
1-176

> <textQuery>
7628,244,25059,7618,7641,5053,637511,7714,7762,25429,8842,7794,637566,7843,174,7870,86102,7888,7896,1140,8042,8058,8078,8087,8117,8133,115224,8175,8194,445639,4944,8294,93541,8360,8363,656612,125098,3
352,3303913,64805,31200,1712058,31236,31239,31265,31266,31276,6950273,518659,14896,14798,14829,14830,8635,23266,4284,8693,22311,8759,8785,2723810,8857,3893,9936739,516892,5430,9017,15433,107720,955208
1,164825,10275455,16666,9839306,5282227,23676745,32881,91581,39800,33344,15962220,33528,5365075,62829,162381,517202,6433353,2730,5372405,36081,3120,3017,2969,18827,19518,19658,38283,2758,10112,10340,7
12,5794,3347,104150,2912,2450,40326,40585,517055,10913,108242,62097,41679,54680676,62118,753,1030,23673837,54678504,11442,11463,22230,440917,6054,43234,22629,3039,2735067,6144,702,284,176,91688,22947,
47445,1711973,243,10342051,5281875,3776,6224,104926,8755,338,123622,23954,6334,2537,24261,23665760,83975,784,24437,5360315,311,6549,107689,17100,24976875,6654,71245,6442842,62334,54698175,6328154,2476
2,440950,7017,5281873,323,5281167,7175,7292,6335613,7456,7462

$$$$
5,372,405
  SciTegic10191915303D

 37 36  0  0  0  0            999 V2000
   -2.1820   -1.7350    2.3910 S   0  0
   -0.9120   -2.4040    1.3050 P   0  0
   -1.1290   -1.5980   -0.0080 O   0  0
   -1.3830   -3.8710    1.0960 O   0  0
   -0.7560    2.5370   -1.9060 O   0  0
    1.1330    1.8460   -0.9180 O   0  0
    0.6600   -2.3910    1.6960 N   0  0
   -0.6150   -0.3730   -0.0780 C   0  0
   -0.5410    0.2670   -1.2580 C   0  0
    0.0230    1.6190   -1.3420 C   0  0
    1.0840   -2.7790    3.0470 C   0  0
   -0.1040    0.3300    1.1510 C   0  0
   -2.0040   -4.1230   -0.1560 C   0  0
   -0.0880    3.7770   -2.0840 C   0  0
    2.6060   -2.6940    3.1920 C   0  0
    0.9750    3.6330   -3.1740 C   0  0
   -1.1130    4.8670   -2.4000 C   0  0
    1.3420   -2.1170    1.0180 H   0  0
   -0.8810   -0.1530   -2.1930 H   0  0
    0.5920   -2.1370    3.7780 H   0  0
    0.7340   -3.7910    3.2560 H   0  0
   -0.4360   -0.1270    2.0820 H   0  0
   -0.4360    1.3670    1.1510 H   0  0
    0.9860    0.3300    1.1510 H   0  0
   -2.3630   -5.1390   -0.3280 H   0  0
   -1.2890   -3.8870   -0.9450 H   0  0
   -2.8520   -3.4470   -0.2600 H   0  0
    0.3770    3.9550   -1.1150 H   0  0
    2.9140   -2.9750    4.1980 H   0  0
    3.0980   -3.3480    2.4730 H   0  0
    2.9510   -1.6760    3.0080 H   0  0
    1.7440    2.9120   -2.8980 H   0  0
    1.4630    4.5880   -3.3650 H   0  0
    0.5230    3.2970   -4.1090 H   0  0
   -1.8550    4.9690   -1.6070 H   0  0
   -1.6450    4.6410   -3.3240 H   0  0
   -0.6230    5.8320   -2.5250 H   0  0
  1  2  2  0
  2  3  1  0
  2  4  1  0
  2  7  1  0
  3  8  1  0
  4 13  1  0
  5 10  1  0
  5 14  1  0
  6 10  2  0
  7 11  1  0
  8  9  2  0
  8 12  1  0
  9 10  1  0
 11 15  1  0
 14 16  1  0
 14 17  1  0
  7 18  1  0
  9 19  1  0
 11 20  1  0
 11 21  1  0
 12 22  1  0
 12 23  1  0
 12 24  1  0
 13 25  1  0
 13 26  1  0
 13 27  1  0
 14 28  1  0
 15 29  1  0
 15 30  1  0
 15 31  1  0
 16 32  1  0
 16 33  1  0
 16 34  1  0
 17 35  1  0
 17 36  1  0
 17 37  1  0
M  END
> <Name>
5,372,405

> <OBJECTID>
9223372118462496779

> <ActiveAidCount>
11

> <AtomChiralCount>
1

> <AtomChiralDefCount>
0

> <AtomChiralUndefCount>
1

> <BondChiralCount>
1

> <BondChiralDefCount>
1

> <BondChiralUndefCount>
0

> <CID>
5372405

> <CanonicalSmiles>
CCNP(=S)(OC)OC(=CC(=O)OC(C)C)C

> <Complexity>
330

> <CovalentUnitCount>
1

> <CreateDate>
2005/03/27 00:00

> <HeavyAtomCount>
17

> <HydrogenBondAcceptorCount>
6

> <HydrogenBondDonorCount>
1

> <IUPACName>
propan-2-yl (E)-3-[ethylamino(methoxy)phosphinothioyl]oxybut-2-enoate

> <InChI>
InChI=1S/C10H20NO4PS/c1-6-11-16(17,13-5)15-9(4)7-10(12)14-8(2)3/h7-8H,6H2,1-5H3,(H,11,17)/b9-7+

> <InChIKey>
BZNDWPRGXNILMS-VQHVLOKHSA-N

> <IsomericSmiles>
CCNP(=S)(OC)O/C(=C/C(=O)OC(C)C)/C

> <IsotopeAtomCount>
0

> <MeSHHeading>
propetamphos

> <MeSHTerm>
propetamphos

> <MolecularFormula>
C10H20NO4PS

> <MolecularWeight>
281.31

> <RotatableBondCount>
8

> <Smiles>
S=P(NCC)(OC)O\C(\C)=C\C(=O)OC(C)C

> <SourceCategory>
Legacy Depositors
Chemical Vendors
Curation Efforts
Governmental Organizations
NIH Initiatives
Subscription Services
Journal Publishers
Research and Development

> <Synonym>
PROPETAMPHOS
31218-83-4
CHEBI:38864
(E)-1-Methylethyl 3-(((ethylamino)methoxyphosphinothioyl)oxy)-2-butenoate
1-Methylethyl (E)-3-(((ethylamino)methoxyphosphinothioyl)oxy)-2-butenoate
58995-37-2
W-110796
propan-2-yl (E)-3-[ethylamino(methoxy)phosphinothioyl]oxybut-2-enoate
propan-2-yl (2E)-3-{[(ethylamino)(methoxy)phosphorothioyl]oxy}but-2-enoate
O-methyl O-{1-[(propan-2-yl)oxycarbonyl]prop-1-en-2-yl} ethylamidothiophosphate
Seraphos
E-Propetamphos
(E)-1-Metiletil-3-(((etilamino)metoxifosfinotiol)oxi)-2-butenoato
AI3-27989
Sandoz 52139
AC1Q5XTZ
AC1NSY99
DSSTox_CID_12470
DSSTox_RID_78951
DSSTox_GSID_32470
Safrotin, analytical standard
SCHEMBL117991
CHEMBL1875667
DTXSID7032470
BZNDWPRGXNILMS-VQHVLOKHSA-N
trans-Isopropyl-3-[[(ethylamino)methoxyfosfinothioyl]oxy]crotonate
VEL 4283
Tox21_300863
SAN 52139
AKOS015960933
2-Butenoic acid, 3-(((ethylamino)methoxyphospinothioyl)oxy)-, 1-methylethyl ester
ACM31218834
NCGC00163952-01
NCGC00163952-02
NCGC00163952-03
NCGC00254767-01
Propetamphos 10 microg/mL in Cyclohexane
Propetamphos 100 microg/mL in Cyclohexane
CAS-31218-83-4
C18669
D08437
Propetamphos, PESTANAL(R), analytical standard
(E)-isopropyl 3-((ethylamino)(methoxy)phosphorothioyloxy)but-2-enoate
Isopropyl (2E)-3-([(ethylamino)(methoxy)phosphorothioyl]oxy)-2-butenoate
isopropyl (2E)-3-{[(ethylamino)(methoxy)phosphorothioyl]oxy}but-2-enoate
propan-2-yl 3-{[(ethylamino)(methoxy)phosphorothioyl]oxy}but-2-enoate
(E)-3-[[(Ethylamino)methoxyphosphinothioyl]oxy]-2-butenoic acid 1-methyl-ethyl ester
2-Butenoic acid, 3-(((ethylamino)methoxyphosphinothioyl)oxy)-, 1-methylethyl ester
2-Butenoic acid, 3-(((ethylamino)methoxyphosphinothioyl)oxy)-, isopropyl ester, (E)-

> <TPSA>
88.9

> <TotalAidCount>
242

> <TotalFormalCharge>
0

> <XLogP>
2.8

> <database>
PubChem Compound

> <matchingCount>
176

> <primaryID>
5372405

> <queryTranslation>
7628[CompoundID] OR 244[CompoundID] OR 25059[CompoundID] OR 7618[CompoundID] OR 7641[CompoundID] OR 5053[CompoundID] OR 637511[CompoundID] OR 7714[CompoundID] OR 7762[CompoundID] OR 25429[CompoundID]
OR 8842[CompoundID] OR 7794[CompoundID] OR 637566[CompoundID] OR 7843[CompoundID] OR 174[CompoundID] OR 7870[CompoundID] OR 86102[CompoundID] OR 7888[CompoundID] OR 7896[CompoundID] OR 1140[CompoundID
] OR 8042[CompoundID] OR 8058[CompoundID] OR 8078[CompoundID] OR 8087[CompoundID] OR 8117[CompoundID] OR 8133[CompoundID] OR 115224[CompoundID] OR 8175[CompoundID] OR 8194[CompoundID] OR 445639[Compou
ndID] OR 4944[CompoundID] OR 8294[CompoundID] OR 93541[CompoundID] OR 8360[CompoundID] OR 8363[CompoundID] OR 656612[CompoundID] OR 125098[CompoundID] OR 3352[CompoundID] OR 3303913[CompoundID] OR 648
05[CompoundID] OR 31200[CompoundID] OR 1712058[CompoundID] OR 31236[CompoundID] OR 31239[CompoundID] OR 31265[CompoundID] OR 31266[CompoundID] OR 31276[CompoundID] OR 6950273[CompoundID] OR 518659[Com
poundID] OR 14896[CompoundID] OR 14798[CompoundID] OR 14829[CompoundID] OR 14830[CompoundID] OR 8635[CompoundID] OR 23266[CompoundID] OR 4284[CompoundID] OR 8693[CompoundID] OR 22311[CompoundID] OR 87
59[CompoundID] OR 8785[CompoundID] OR 2723810[CompoundID] OR 8857[CompoundID] OR 3893[CompoundID] OR 9936739[CompoundID] OR 516892[CompoundID] OR 5430[CompoundID] OR 9017[CompoundID] OR 15433[Compound
ID] OR 107720[CompoundID] OR 9552081[CompoundID] OR 164825[CompoundID] OR 10275455[CompoundID] OR 16666[CompoundID] OR 9839306[CompoundID] OR 5282227[CompoundID] OR 23676745[CompoundID] OR 32881[Compo
undID] OR 91581[CompoundID] OR 39800[CompoundID] OR 33344[CompoundID] OR 15962220[CompoundID] OR 33528[CompoundID] OR 5365075[CompoundID] OR 62829[CompoundID] OR 162381[CompoundID] OR 517202[CompoundI
D] OR 6433353[CompoundID] OR 2730[CompoundID] OR 5372405[CompoundID] OR 36081[CompoundID] OR 3120[CompoundID] OR 3017[CompoundID] OR 2969[CompoundID] OR 18827[CompoundID] OR 19518[CompoundID] OR 19658
[CompoundID] OR 38283[CompoundID] OR 2758[CompoundID] OR 10112[CompoundID] OR 10340[CompoundID] OR 712[CompoundID] OR 5794[CompoundID] OR 3347[CompoundID] OR 104150[CompoundID] OR 2912[CompoundID] OR
2450[CompoundID] OR 40326[CompoundID] OR 40585[CompoundID] OR 517055[CompoundID] OR 10913[CompoundID] OR 108242[CompoundID] OR 62097[CompoundID] OR 41679[CompoundID] OR 54680676[CompoundID] OR 62118[C
ompoundID] OR 753[CompoundID] OR 1030[CompoundID] OR 23673837[CompoundID] OR 54678504[CompoundID] OR 11442[CompoundID] OR 11463[CompoundID] OR 22230[CompoundID] OR 440917[CompoundID] OR 6054[CompoundI
D] OR 43234[CompoundID] OR 22629[CompoundID] OR 3039[CompoundID] OR 2735067[CompoundID] OR 6144[CompoundID] OR 702[CompoundID] OR 284[CompoundID] OR 176[CompoundID] OR 91688[CompoundID] OR 22947[Compo
undID] OR 47445[CompoundID] OR 1711973[CompoundID] OR 243[CompoundID] OR 10342051[CompoundID] OR 5281875[CompoundID] OR 3776[CompoundID] OR 6224[CompoundID] OR 104926[CompoundID] OR 8755[CompoundID] O
R 338[CompoundID] OR 123622[CompoundID] OR 23954[CompoundID] OR 6334[CompoundID] OR 2537[CompoundID] OR 24261[CompoundID] OR 23665760[CompoundID] OR 83975[CompoundID] OR 784[CompoundID] OR 24437[Compo
undID] OR 5360315[CompoundID] OR 311[CompoundID] OR 6549[CompoundID] OR 107689[CompoundID] OR 17100[CompoundID] OR 24976875[CompoundID] OR 6654[CompoundID] OR 71245[CompoundID] OR 6442842[CompoundID]
OR 62334[CompoundID] OR 54698175[CompoundID] OR 6328154[CompoundID] OR 24762[CompoundID] OR 440950[CompoundID] OR 7017[CompoundID] OR 5281873[CompoundID] OR 323[CompoundID] OR 5281167[CompoundID] OR 7
175[CompoundID] OR 7292[CompoundID] OR 6335613[CompoundID] OR 7456[CompoundID] OR 7462[CompoundID]

> <resultIndex>
19

> <resultRange>
1-176

> <textQuery>
7628,244,25059,7618,7641,5053,637511,7714,7762,25429,8842,7794,637566,7843,174,7870,86102,7888,7896,1140,8042,8058,8078,8087,8117,8133,115224,8175,8194,445639,4944,8294,93541,8360,8363,656612,125098,3
352,3303913,64805,31200,1712058,31236,31239,31265,31266,31276,6950273,518659,14896,14798,14829,14830,8635,23266,4284,8693,22311,8759,8785,2723810,8857,3893,9936739,516892,5430,9017,15433,107720,955208
1,164825,10275455,16666,9839306,5282227,23676745,32881,91581,39800,33344,15962220,33528,5365075,62829,162381,517202,6433353,2730,5372405,36081,3120,3017,2969,18827,19518,19658,38283,2758,10112,10340,7
12,5794,3347,104150,2912,2450,40326,40585,517055,10913,108242,62097,41679,54680676,62118,753,1030,23673837,54678504,11442,11463,22230,440917,6054,43234,22629,3039,2735067,6144,702,284,176,91688,22947,
47445,1711973,243,10342051,5281875,3776,6224,104926,8755,338,123622,23954,6334,2537,24261,23665760,83975,784,24437,5360315,311,6549,107689,17100,24976875,6654,71245,6442842,62334,54698175,6328154,2476
2,440950,7017,5281873,323,5281167,7175,7292,6335613,7456,7462

$$$$
5,365,075
  SciTegic10191915303D

 69 68  0  0  0  0            999 V2000
   -2.3710    3.7210   -0.4430 C   0  0
   -1.7300    4.9000   -0.4430 C   0  0
   -1.5510    2.4570   -0.4430 C   0  0
   -0.2250    4.9000   -0.4430 C   0  0
   -2.3690    1.2320   -0.0370 C   0  0
    0.3590    6.2520   -0.8590 C   0  0
   -2.3460  -11.3460    1.9140 C   0  0
    6.1110    8.9880   -1.6490 C   0  0
    4.5820    8.9770   -1.6660 C   0  0
   -1.5290  -10.1210    1.5000 C   0  0
   -2.3500   -8.8300    1.5230 C   0  0
   -1.5350   -7.6060    1.1090 C   0  0
   -2.3560   -6.3150    1.1350 C   0  0
   -1.5390   -5.0900    0.7210 C   0  0
   -2.3590   -3.7990    0.7440 C   0  0
   -1.5430   -2.5740    0.3300 C   0  0
    1.8870    6.2640   -0.8420 C   0  0
    2.4710    7.6130   -1.2640 C   0  0
    4.0000    7.6270   -1.2460 C   0  0
   -2.3630   -1.2830    0.3530 C   0  0
   -1.5490   -0.0590   -0.0610 C   0  0
   -1.5250  -12.6370    1.8910 C   0  0
    6.6950   10.3380   -2.0700 C   0  0
   -3.4490    3.7790   -0.4430 H   0  0
   -2.2090    5.8690   -0.4430 H   0  0
   -1.1860    2.2540   -1.4510 H   0  0
   -0.6860    2.5780    0.2070 H   0  0
    0.1460    4.7090    0.5620 H   0  0
    0.1460    4.1060   -1.0920 H   0  0
   -2.8240    1.3810    0.9430 H   0  0
   -3.2560    1.1350   -0.6600 H   0  0
   -0.0410    7.0510   -0.2360 H   0  0
   -0.0180    6.5490   -1.8380 H   0  0
   -2.7990  -11.1950    2.8950 H   0  0
   -3.2360  -11.4440    1.2930 H   0  0
    6.5120    8.1860   -2.2680 H   0  0
    6.4880    8.6950   -0.6680 H   0  0
    4.1840    9.7790   -1.0470 H   0  0
    4.2070    9.2700   -2.6470 H   0  0
   -1.0780  -10.2720    0.5190 H   0  0
   -0.6410  -10.0240    2.1210 H   0  0
   -2.8030   -8.6800    2.5040 H   0  0
   -3.2400   -8.9280    0.9040 H   0  0
   -1.0820   -7.7560    0.1290 H   0  0
   -0.6450   -7.5080    1.7300 H   0  0
   -2.8070   -6.1640    2.1150 H   0  0
   -3.2460   -6.4120    0.5140 H   0  0
   -1.0880   -5.2400   -0.2600 H   0  0
   -0.6480   -4.9920    1.3420 H   0  0
   -2.8110   -3.6480    1.7250 H   0  0
   -3.2500   -3.8970    0.1230 H   0  0
   -1.0920   -2.7250   -0.6500 H   0  0
   -0.6520   -2.4770    0.9510 H   0  0
    2.2870    5.4610   -1.4610 H   0  0
    2.2640    5.9710    0.1390 H   0  0
    2.0700    8.4160   -0.6450 H   0  0
    2.0940    7.9060   -2.2440 H   0  0
    4.3990    6.8240   -1.8650 H   0  0
    4.3750    7.3340   -0.2660 H   0  0
   -2.8160   -1.1330    1.3340 H   0  0
   -3.2540   -1.3810   -0.2680 H   0  0
   -1.0960   -0.2110   -1.0410 H   0  0
   -0.6580    0.0390    0.5600 H   0  0
   -2.1310  -13.4830    2.2170 H   0  0
   -1.1470  -12.8340    0.8890 H   0  0
   -0.6700  -12.5610    2.5620 H   0  0
    7.7850   10.3320   -2.0530 H   0  0
    6.3560   11.1310   -1.4020 H   0  0
    6.3790   10.5960   -3.0820 H   0  0
  1  2  2  0
  1  3  1  0
  2  4  1  0
  3  5  1  0
  4  6  1  0
  5 21  1  0
  6 17  1  0
  7 10  1  0
  7 22  1  0
  8  9  1  0
  8 23  1  0
  9 19  1  0
 10 11  1  0
 11 12  1  0
 12 13  1  0
 13 14  1  0
 14 15  1  0
 15 16  1  0
 16 20  1  0
 17 18  1  0
 18 19  1  0
 20 21  1  0
  1 24  1  0
  2 25  1  0
  3 26  1  0
  3 27  1  0
  4 28  1  0
  4 29  1  0
  5 30  1  0
  5 31  1  0
  6 32  1  0
  6 33  1  0
  7 34  1  0
  7 35  1  0
  8 36  1  0
  8 37  1  0
  9 38  1  0
  9 39  1  0
 10 40  1  0
 10 41  1  0
 11 42  1  0
 11 43  1  0
 12 44  1  0
 12 45  1  0
 13 46  1  0
 13 47  1  0
 14 48  1  0
 14 49  1  0
 15 50  1  0
 15 51  1  0
 16 52  1  0
 16 53  1  0
 17 54  1  0
 17 55  1  0
 18 56  1  0
 18 57  1  0
 19 58  1  0
 19 59  1  0
 20 60  1  0
 20 61  1  0
 21 62  1  0
 21 63  1  0
 22 64  1  0
 22 65  1  0
 22 66  1  0
 23 67  1  0
 23 68  1  0
 23 69  1  0
M  END
> <Name>
5,365,075

> <OBJECTID>
9223372122757464075

> <ActiveAidCount>
0

> <AtomChiralCount>
0

> <AtomChiralDefCount>
0

> <AtomChiralUndefCount>
0

> <BondChiralCount>
1

> <BondChiralDefCount>
1

> <BondChiralUndefCount>
0

> <CID>
5365075

> <CanonicalSmiles>
CCCCCCCCCCCCCC=CCCCCCCCC

> <Complexity>
216

> <CovalentUnitCount>
1

> <CreateDate>
2005/03/27 00:00

> <HeavyAtomCount>
23

> <HydrogenBondAcceptorCount>
0

> <HydrogenBondDonorCount>
0

> <IUPACName>
(Z)-tricos-9-ene

> <InChI>
InChI=1S/C23H46/c1-3-5-7-9-11-13-15-17-19-21-23-22-20-18-16-14-12-10-8-6-4-2/h17,19H,3-16,18,20-23H2,1-2H3/b19-17-

> <InChIKey>
IGOWHGRNPLFNDJ-ZPHPHTNESA-N

> <IsomericSmiles>
CCCCCCCCCCCCC/C=C\CCCCCCCC

> <IsotopeAtomCount>
0

> <MeSHHeading>
muscalure

> <MeSHTerm>
muscalure, (E)-isomer
muscalure
cis-9-tricosene
muscalure, (Z)-isomer

> <MolecularFormula>
C23H46

> <MolecularWeight>
322.6

> <RotatableBondCount>
19

> <Smiles>
C(/CCCCCCCCCCCCC)=C/CCCCCCCC

> <SourceCategory>
Legacy Depositors
Chemical Vendors
Research and Development
Curation Efforts
Governmental Organizations
NIH Initiatives
Subscription Services
Journal Publishers

> <Synonym>
cis-9-Tricosene
Muscalure
(Z)-9-Tricosene
27519-02-4
(Z)-tricos-9-ene
9-Tricosene, (Z)-
Muscamone
cis-Tricos-9-ene
Caswell No. 883C
9Z-Tricosene
UNII-6BSP6HFW73
(9Z)-Tricosene
9-Tricosene, (9Z)-
EINECS 248-505-7
ENT 35349
EPA Pesticide Chemical Code 103201
BRN 1841622
6BSP6HFW73
Flybait
AI3-35349
IGOWHGRNPLFNDJ-ZPHPHTNESA-N
MFCD00008988
Z-9-TRICOSENE
AC1NSKWN
PubChem13090
(9Z)-tricos-9-ene
(9Z)-9-Tricosene #
(Z)-9-Tricosene, 97%
Jsp005341
CHEMBL1894305
DTXSID0032653
ZINC6920413
ZX-AT010989
LMFA11000117
OR7145
AKOS024462408
AM84868
NCGC00163763-01
AS-14813
CC-25872
M691
DB-047238
LS-157046
ST24036534
Muscalure, PESTANAL(R), analytical standard
A819098
J-016797
I14-11698

> <TPSA>
0

> <TotalAidCount>
32

> <TotalFormalCharge>
0

> <XLogP>
11.7

> <database>
PubChem Compound

> <matchingCount>
176

> <primaryID>
5365075

> <queryTranslation>
7628[CompoundID] OR 244[CompoundID] OR 25059[CompoundID] OR 7618[CompoundID] OR 7641[CompoundID] OR 5053[CompoundID] OR 637511[CompoundID] OR 7714[CompoundID] OR 7762[CompoundID] OR 25429[CompoundID]
OR 8842[CompoundID] OR 7794[CompoundID] OR 637566[CompoundID] OR 7843[CompoundID] OR 174[CompoundID] OR 7870[CompoundID] OR 86102[CompoundID] OR 7888[CompoundID] OR 7896[CompoundID] OR 1140[CompoundID
] OR 8042[CompoundID] OR 8058[CompoundID] OR 8078[CompoundID] OR 8087[CompoundID] OR 8117[CompoundID] OR 8133[CompoundID] OR 115224[CompoundID] OR 8175[CompoundID] OR 8194[CompoundID] OR 445639[Compou
ndID] OR 4944[CompoundID] OR 8294[CompoundID] OR 93541[CompoundID] OR 8360[CompoundID] OR 8363[CompoundID] OR 656612[CompoundID] OR 125098[CompoundID] OR 3352[CompoundID] OR 3303913[CompoundID] OR 648
05[CompoundID] OR 31200[CompoundID] OR 1712058[CompoundID] OR 31236[CompoundID] OR 31239[CompoundID] OR 31265[CompoundID] OR 31266[CompoundID] OR 31276[CompoundID] OR 6950273[CompoundID] OR 518659[Com
poundID] OR 14896[CompoundID] OR 14798[CompoundID] OR 14829[CompoundID] OR 14830[CompoundID] OR 8635[CompoundID] OR 23266[CompoundID] OR 4284[CompoundID] OR 8693[CompoundID] OR 22311[CompoundID] OR 87
59[CompoundID] OR 8785[CompoundID] OR 2723810[CompoundID] OR 8857[CompoundID] OR 3893[CompoundID] OR 9936739[CompoundID] OR 516892[CompoundID] OR 5430[CompoundID] OR 9017[CompoundID] OR 15433[Compound
ID] OR 107720[CompoundID] OR 9552081[CompoundID] OR 164825[CompoundID] OR 10275455[CompoundID] OR 16666[CompoundID] OR 9839306[CompoundID] OR 5282227[CompoundID] OR 23676745[CompoundID] OR 32881[Compo
undID] OR 91581[CompoundID] OR 39800[CompoundID] OR 33344[CompoundID] OR 15962220[CompoundID] OR 33528[CompoundID] OR 5365075[CompoundID] OR 62829[CompoundID] OR 162381[CompoundID] OR 517202[CompoundI
D] OR 6433353[CompoundID] OR 2730[CompoundID] OR 5372405[CompoundID] OR 36081[CompoundID] OR 3120[CompoundID] OR 3017[CompoundID] OR 2969[CompoundID] OR 18827[CompoundID] OR 19518[CompoundID] OR 19658
[CompoundID] OR 38283[CompoundID] OR 2758[CompoundID] OR 10112[CompoundID] OR 10340[CompoundID] OR 712[CompoundID] OR 5794[CompoundID] OR 3347[CompoundID] OR 104150[CompoundID] OR 2912[CompoundID] OR
2450[CompoundID] OR 40326[CompoundID] OR 40585[CompoundID] OR 517055[CompoundID] OR 10913[CompoundID] OR 108242[CompoundID] OR 62097[CompoundID] OR 41679[CompoundID] OR 54680676[CompoundID] OR 62118[C
ompoundID] OR 753[CompoundID] OR 1030[CompoundID] OR 23673837[CompoundID] OR 54678504[CompoundID] OR 11442[CompoundID] OR 11463[CompoundID] OR 22230[CompoundID] OR 440917[CompoundID] OR 6054[CompoundI
D] OR 43234[CompoundID] OR 22629[CompoundID] OR 3039[CompoundID] OR 2735067[CompoundID] OR 6144[CompoundID] OR 702[CompoundID] OR 284[CompoundID] OR 176[CompoundID] OR 91688[CompoundID] OR 22947[Compo
undID] OR 47445[CompoundID] OR 1711973[CompoundID] OR 243[CompoundID] OR 10342051[CompoundID] OR 5281875[CompoundID] OR 3776[CompoundID] OR 6224[CompoundID] OR 104926[CompoundID] OR 8755[CompoundID] O
R 338[CompoundID] OR 123622[CompoundID] OR 23954[CompoundID] OR 6334[CompoundID] OR 2537[CompoundID] OR 24261[CompoundID] OR 23665760[CompoundID] OR 83975[CompoundID] OR 784[CompoundID] OR 24437[Compo
undID] OR 5360315[CompoundID] OR 311[CompoundID] OR 6549[CompoundID] OR 107689[CompoundID] OR 17100[CompoundID] OR 24976875[CompoundID] OR 6654[CompoundID] OR 71245[CompoundID] OR 6442842[CompoundID]
OR 62334[CompoundID] OR 54698175[CompoundID] OR 6328154[CompoundID] OR 24762[CompoundID] OR 440950[CompoundID] OR 7017[CompoundID] OR 5281873[CompoundID] OR 323[CompoundID] OR 5281167[CompoundID] OR 7
175[CompoundID] OR 7292[CompoundID] OR 6335613[CompoundID] OR 7456[CompoundID] OR 7462[CompoundID]

> <resultIndex>
20

> <resultRange>
1-176

> <textQuery>
7628,244,25059,7618,7641,5053,637511,7714,7762,25429,8842,7794,637566,7843,174,7870,86102,7888,7896,1140,8042,8058,8078,8087,8117,8133,115224,8175,8194,445639,4944,8294,93541,8360,8363,656612,125098,3
352,3303913,64805,31200,1712058,31236,31239,31265,31266,31276,6950273,518659,14896,14798,14829,14830,8635,23266,4284,8693,22311,8759,8785,2723810,8857,3893,9936739,516892,5430,9017,15433,107720,955208
1,164825,10275455,16666,9839306,5282227,23676745,32881,91581,39800,33344,15962220,33528,5365075,62829,162381,517202,6433353,2730,5372405,36081,3120,3017,2969,18827,19518,19658,38283,2758,10112,10340,7
12,5794,3347,104150,2912,2450,40326,40585,517055,10913,108242,62097,41679,54680676,62118,753,1030,23673837,54678504,11442,11463,22230,440917,6054,43234,22629,3039,2735067,6144,702,284,176,91688,22947,
47445,1711973,243,10342051,5281875,3776,6224,104926,8755,338,123622,23954,6334,2537,24261,23665760,83975,784,24437,5360315,311,6549,107689,17100,24976875,6654,71245,6442842,62334,54698175,6328154,2476
2,440950,7017,5281873,323,5281167,7175,7292,6335613,7456,7462

$$$$
5,360,315
  SciTegic10191915303D

  1  0  0  0  0  0            999 V2000
    0.0000    0.0000    0.0000 Mg  0  2
M  CHG  1   1   2
M  END
> <Name>
5,360,315

> <OBJECTID>
9223372127052431371

> <ActiveAidCount>
0

> <AtomChiralCount>
0

> <AtomChiralDefCount>
0

> <AtomChiralUndefCount>
0

> <BondChiralCount>
0

> <BondChiralDefCount>
0

> <BondChiralUndefCount>
0

> <CID>
5360315

> <CanonicalSmiles>
[Mg+2].[Cl-].[Cl-]

> <Complexity>
0

> <CovalentUnitCount>
3

> <CreateDate>
2004/09/16 00:00

> <HeavyAtomCount>
3

> <HydrogenBondAcceptorCount>
2

> <HydrogenBondDonorCount>
0

> <IUPACName>
magnesium;dichloride

> <InChI>
InChI=1S/2ClH.Mg/h2*1H;/q;;+2/p-2

> <InChIKey>
TWRXJAOTZQYOKJ-UHFFFAOYSA-L

> <IsomericSmiles>
[Mg+2].[Cl-].[Cl-]

> <IsotopeAtomCount>
0

> <MeSHHeading>
Magnesium Chloride

> <MeSHTerm>
Chloride, Magnesium
MgCl2
Magnesium Chloride

> <MolecularFormula>
Cl2Mg

> <MolecularWeight>
95.21

> <RotatableBondCount>
0

> <Smiles>
[Mg+2].[Cl-].[Cl-]

> <SourceCategory>
Chemical Vendors
Legacy Depositors
Research and Development
Curation Efforts
Governmental Organizations
Subscription Services
NIH Initiatives
Journal Publishers

> <Synonym>
MAGNESIUM CHLORIDE
7786-30-3
Magnesium chloride anhydrous
MAGNESIUM CHLORIDE, ANHYDROUS
MgCl2
MFCD00011106
CHEBI:6636
Magnesium chloride, pure
Cl2Mg
Chloromagnesite
Magnesiumchlorid
Magnesium chloride, 99.9%, (trace metal basis), pure, anhydrous
magnesium(II)chloride
AC1NSEHA
magnesium(II) chloride
magnesium (II) chloride
[MgCl2]
AC1L2NJB
magnesium(2+) dichloride
ACMC-1BE2K
Anhydrous magnesium chloride
Magnesium chloride,anhydrous
magnesium(2+) ion dichloride
CHEMBL2219642
DTXSID5034690
CTK0H4732
KS-00000GIG
TWRXJAOTZQYOKJ-UHFFFAOYSA-L
ANW-56406
AKOS015833135
DB09407
Magnesium Chloride, Powder, < 200um
RP18592
RTR-037808
TRA-0177849
AK550052
K371
SC-18226
AB1003546
TR-037808
FT-0628077
FT-0628078
C07755
SR-01000944482
SR-01000944482-1
Magnesium chloride solution 1M in water (+/- 0.05M)
Magnesium chloride, dry, 99.99% (metals basis) -10 Mesh beads
17638-61-8
56491-84-0

> <TPSA>
0

> <TotalAidCount>
1

> <TotalFormalCharge>
0

> <database>
PubChem Compound

> <matchingCount>
176

> <primaryID>
5360315

> <queryTranslation>
7628[CompoundID] OR 244[CompoundID] OR 25059[CompoundID] OR 7618[CompoundID] OR 7641[CompoundID] OR 5053[CompoundID] OR 637511[CompoundID] OR 7714[CompoundID] OR 7762[CompoundID] OR 25429[CompoundID]
OR 8842[CompoundID] OR 7794[CompoundID] OR 637566[CompoundID] OR 7843[CompoundID] OR 174[CompoundID] OR 7870[CompoundID] OR 86102[CompoundID] OR 7888[CompoundID] OR 7896[CompoundID] OR 1140[CompoundID
] OR 8042[CompoundID] OR 8058[CompoundID] OR 8078[CompoundID] OR 8087[CompoundID] OR 8117[CompoundID] OR 8133[CompoundID] OR 115224[CompoundID] OR 8175[CompoundID] OR 8194[CompoundID] OR 445639[Compou
ndID] OR 4944[CompoundID] OR 8294[CompoundID] OR 93541[CompoundID] OR 8360[CompoundID] OR 8363[CompoundID] OR 656612[CompoundID] OR 125098[CompoundID] OR 3352[CompoundID] OR 3303913[CompoundID] OR 648
05[CompoundID] OR 31200[CompoundID] OR 1712058[CompoundID] OR 31236[CompoundID] OR 31239[CompoundID] OR 31265[CompoundID] OR 31266[CompoundID] OR 31276[CompoundID] OR 6950273[CompoundID] OR 518659[Com
poundID] OR 14896[CompoundID] OR 14798[CompoundID] OR 14829[CompoundID] OR 14830[CompoundID] OR 8635[CompoundID] OR 23266[CompoundID] OR 4284[CompoundID] OR 8693[CompoundID] OR 22311[CompoundID] OR 87
59[CompoundID] OR 8785[CompoundID] OR 2723810[CompoundID] OR 8857[CompoundID] OR 3893[CompoundID] OR 9936739[CompoundID] OR 516892[CompoundID] OR 5430[CompoundID] OR 9017[CompoundID] OR 15433[Compound
ID] OR 107720[CompoundID] OR 9552081[CompoundID] OR 164825[CompoundID] OR 10275455[CompoundID] OR 16666[CompoundID] OR 9839306[CompoundID] OR 5282227[CompoundID] OR 23676745[CompoundID] OR 32881[Compo
undID] OR 91581[CompoundID] OR 39800[CompoundID] OR 33344[CompoundID] OR 15962220[CompoundID] OR 33528[CompoundID] OR 5365075[CompoundID] OR 62829[CompoundID] OR 162381[CompoundID] OR 517202[CompoundI
D] OR 6433353[CompoundID] OR 2730[CompoundID] OR 5372405[CompoundID] OR 36081[CompoundID] OR 3120[CompoundID] OR 3017[CompoundID] OR 2969[CompoundID] OR 18827[CompoundID] OR 19518[CompoundID] OR 19658
[CompoundID] OR 38283[CompoundID] OR 2758[CompoundID] OR 10112[CompoundID] OR 10340[CompoundID] OR 712[CompoundID] OR 5794[CompoundID] OR 3347[CompoundID] OR 104150[CompoundID] OR 2912[CompoundID] OR
2450[CompoundID] OR 40326[CompoundID] OR 40585[CompoundID] OR 517055[CompoundID] OR 10913[CompoundID] OR 108242[CompoundID] OR 62097[CompoundID] OR 41679[CompoundID] OR 54680676[CompoundID] OR 62118[C
ompoundID] OR 753[CompoundID] OR 1030[CompoundID] OR 23673837[CompoundID] OR 54678504[CompoundID] OR 11442[CompoundID] OR 11463[CompoundID] OR 22230[CompoundID] OR 440917[CompoundID] OR 6054[CompoundI
D] OR 43234[CompoundID] OR 22629[CompoundID] OR 3039[CompoundID] OR 2735067[CompoundID] OR 6144[CompoundID] OR 702[CompoundID] OR 284[CompoundID] OR 176[CompoundID] OR 91688[CompoundID] OR 22947[Compo
undID] OR 47445[CompoundID] OR 1711973[CompoundID] OR 243[CompoundID] OR 10342051[CompoundID] OR 5281875[CompoundID] OR 3776[CompoundID] OR 6224[CompoundID] OR 104926[CompoundID] OR 8755[CompoundID] O
R 338[CompoundID] OR 123622[CompoundID] OR 23954[CompoundID] OR 6334[CompoundID] OR 2537[CompoundID] OR 24261[CompoundID] OR 23665760[CompoundID] OR 83975[CompoundID] OR 784[CompoundID] OR 24437[Compo
undID] OR 5360315[CompoundID] OR 311[CompoundID] OR 6549[CompoundID] OR 107689[CompoundID] OR 17100[CompoundID] OR 24976875[CompoundID] OR 6654[CompoundID] OR 71245[CompoundID] OR 6442842[CompoundID]
OR 62334[CompoundID] OR 54698175[CompoundID] OR 6328154[CompoundID] OR 24762[CompoundID] OR 440950[CompoundID] OR 7017[CompoundID] OR 5281873[CompoundID] OR 323[CompoundID] OR 5281167[CompoundID] OR 7
175[CompoundID] OR 7292[CompoundID] OR 6335613[CompoundID] OR 7456[CompoundID] OR 7462[CompoundID]

> <resultIndex>
21

> <resultRange>
1-176

> <textQuery>
7628,244,25059,7618,7641,5053,637511,7714,7762,25429,8842,7794,637566,7843,174,7870,86102,7888,7896,1140,8042,8058,8078,8087,8117,8133,115224,8175,8194,445639,4944,8294,93541,8360,8363,656612,125098,3
352,3303913,64805,31200,1712058,31236,31239,31265,31266,31276,6950273,518659,14896,14798,14829,14830,8635,23266,4284,8693,22311,8759,8785,2723810,8857,3893,9936739,516892,5430,9017,15433,107720,955208
1,164825,10275455,16666,9839306,5282227,23676745,32881,91581,39800,33344,15962220,33528,5365075,62829,162381,517202,6433353,2730,5372405,36081,3120,3017,2969,18827,19518,19658,38283,2758,10112,10340,7
12,5794,3347,104150,2912,2450,40326,40585,517055,10913,108242,62097,41679,54680676,62118,753,1030,23673837,54678504,11442,11463,22230,440917,6054,43234,22629,3039,2735067,6144,702,284,176,91688,22947,
47445,1711973,243,10342051,5281875,3776,6224,104926,8755,338,123622,23954,6334,2537,24261,23665760,83975,784,24437,5360315,311,6549,107689,17100,24976875,6654,71245,6442842,62334,54698175,6328154,2476
2,440950,7017,5281873,323,5281167,7175,7292,6335613,7456,7462

$$$$
5,282,227
  SciTegic10191915303D

 45 46  0  0  1  0            999 V2000
    1.5000   -1.7720   -2.5650 F   0  0
   -3.0650   -0.5800   -2.0000 F   0  0
   -3.7930   -3.1880   -2.3790 F   0  0
    0.7730   -4.3790   -2.9380 F   0  0
   -0.1660    0.5210   -0.6840 O   0  0
    0.3220    2.6230   -1.2870 O   0  0
   -1.9630   -5.9020   -1.6190 O   0  0
    1.8400    2.3010    1.5530 C   0  0
    0.4280    2.0880    1.0330 C   0  0  3  0  0  0
    0.8850    3.4770    1.4300 C   0  0  3  0  0  0
    0.1910    1.7770   -0.4340 C   0  0
   -0.7720   -1.1370   -2.2760 C   0  0
    0.3010    4.1210    2.6740 C   0  0
    0.2130   -2.1130   -2.5180 C   0  0
   -2.1310   -1.5020   -2.2290 C   0  0
   -1.5220   -3.8240   -2.6620 C   0  0
   -2.5040   -2.8460   -2.4240 C   0  0
   -0.1620   -3.4570   -2.7090 C   0  0
    3.0020    2.2400    0.5660 C   0  0
    2.1620    1.7580    2.9410 C   0  0
   -0.3750    0.2850   -2.0690 C   0  0
   -1.9160   -5.2460   -2.8650 C   0  0
    1.0450    4.9670    3.4040 C   0  0
    0.4320    5.5860    4.6330 C   0  0
   -2.3690   -7.2480   -1.7170 C   0  0
   -0.2700    1.5920    1.7090 H   0  0
    1.0800    4.1780    0.6170 H   0  0
   -0.7010    3.9530    3.0410 H   0  0
    3.3500    1.2190    0.4120 H   0  0
    3.8460    2.8280    0.9300 H   0  0
    2.7070    2.6430   -0.4020 H   0  0
    1.2810    1.7340    3.5820 H   0  0
    2.9140    2.3750    3.4320 H   0  0
    2.5530    0.7420    2.8770 H   0  0
   -1.1780    0.9390   -2.4100 H   0  0
    0.5590    0.4800   -2.5940 H   0  0
   -2.9120   -5.2850   -3.3090 H   0  0
   -1.1720   -5.7440   -3.4850 H   0  0
    2.0640    5.2480    3.1850 H   0  0
   -0.1210    4.8770    5.2480 H   0  0
   -0.2540    6.3830    4.3420 H   0  0
    1.2130    6.0290    5.2520 H   0  0
   -2.3380   -7.6860   -0.7190 H   0  0
   -3.3300   -7.2770   -2.2310 H   0  0
   -1.6470   -7.7780   -2.3360 H   0  0
  1 14  1  0
  2 15  1  0
  3 17  1  0
  4 18  1  0
  5 11  1  0
  5 21  1  0
  6 11  2  0
  7 22  1  0
  7 25  1  0
  8  9  1  0
  8 10  1  0
  8 19  1  0
  8 20  1  0
  9 10  1  0
  9 11  1  0
 10 13  1  0
 12 14  2  0
 12 15  1  0
 12 21  1  0
 13 23  2  0
 14 18  1  0
 15 17  2  0
 16 17  1  0
 16 18  2  0
 16 22  1  0
 23 24  1  0
  9 26  1  0
 10 27  1  0
 13 28  1  0
 19 29  1  0
 19 30  1  0
 19 31  1  0
 20 32  1  0
 20 33  1  0
 20 34  1  0
 21 35  1  0
 21 36  1  0
 22 37  1  0
 22 38  1  0
 23 39  1  0
 24 40  1  0
 24 41  1  0
 24 42  1  0
 25 43  1  0
 25 44  1  0
 25 45  1  0
M  END
> <Name>
5,282,227

> <OBJECTID>
9223372131347398667

> <ActiveAidCount>
0

> <AtomChiralCount>
2

> <AtomChiralDefCount>
0

> <AtomChiralUndefCount>
2

> <BondChiralCount>
1

> <BondChiralDefCount>
1

> <BondChiralUndefCount>
0

> <CID>
5282227

> <CanonicalSmiles>
CC=CC1C(C1(C)C)C(=O)OCC2=C(C(=C(C(=C2F)F)COC)F)F

> <Complexity>
495

> <CovalentUnitCount>
1

> <CreateDate>
2005/06/24 00:00

> <HeavyAtomCount>
25

> <HydrogenBondAcceptorCount>
7

> <HydrogenBondDonorCount>
0

> <IUPACName>
[2,3,5,6-tetrafluoro-4-(methoxymethyl)phenyl]methyl 2,2-dimethyl-3-[(E)-prop-1-enyl]cyclopropane-1-carboxylate

> <InChI>
InChI=1S/C18H20F4O3/c1-5-6-11-12(18(11,2)3)17(23)25-8-10-15(21)13(19)9(7-24-4)14(20)16(10)22/h5-6,11-12H,7-8H2,1-4H3/b6-5+

> <InChIKey>
KVIZNNVXXNFLMU-AATRIKPKSA-N

> <IsomericSmiles>
C/C=C/C1C(C1(C)C)C(=O)OCC2=C(C(=C(C(=C2F)F)COC)F)F

> <IsotopeAtomCount>
0

> <MeSHHeading>
(2,3,5,6-tetrafluoro-4-methoxymethylphenyl)methyl-2,2-dimethyl-3-(1-propenyl)cyclopropanecarboxylate

> <MeSHTerm>
metofluthrin
(2,3,5,6-tetrafluoro-4-methoxymethylphenyl)methyl-2,2-dimethyl-3-(1-propenyl)cyclopropanecarboxylate

> <MolecularFormula>
C18H20F4O3

> <MolecularWeight>
360.3

> <RotatableBondCount>
7

> <Smiles>
Fc1c(c(COC)c(c(c1COC(C2C(\C=C\C)C2(C)C)=O)F)F)F

> <SourceCategory>
Legacy Depositors
Chemical Vendors
NIH Initiatives
Subscription Services
Research and Development
Curation Efforts
Governmental Organizations
Journal Publishers

> <Synonym>
Metofluthrin
Matofluthrin
SumiOne
240494-70-6
Metofluthrin [ISO]
Metofluthrin (JAN)
Eminence
[2,3,5,6-tetrafluoro-4-(methoxymethyl)phenyl]methyl 2,2-dimethyl-3-[(E)-prop-1-enyl]cyclopropanecarboxylate
HSDB 7885
AC1NQZOV
CHEBI:79396
KVIZNNVXXNFLMU-AATRIKPKSA-N
(2,3,5,6-tetrafluoro-4-methoxymethylphenyl)methyl-2,2-dimethyl-3-(1-propenyl)cyclopropanecarboxylate
AN-29379
C13487
D01988
494M706
[2,3,5,6-tetrafluoro-4-(methoxymethyl)phenyl]methyl 2,2-dimethyl-3-[(E)-prop-1-enyl]cyclopropane-1-carboxylate
[2,3,5,6-Tetrafluoro-4-(Methoxymethyl)Phenyl]Methyl 2,2-Dimethyl-3-Pro P-1-Enyl-Cyclopropane-1-Carboxylate

> <TPSA>
35.5

> <TotalAidCount>
0

> <TotalFormalCharge>
0

> <XLogP>
3.7

> <database>
PubChem Compound

> <matchingCount>
176

> <primaryID>
5282227

> <queryTranslation>
7628[CompoundID] OR 244[CompoundID] OR 25059[CompoundID] OR 7618[CompoundID] OR 7641[CompoundID] OR 5053[CompoundID] OR 637511[CompoundID] OR 7714[CompoundID] OR 7762[CompoundID] OR 25429[CompoundID]
OR 8842[CompoundID] OR 7794[CompoundID] OR 637566[CompoundID] OR 7843[CompoundID] OR 174[CompoundID] OR 7870[CompoundID] OR 86102[CompoundID] OR 7888[CompoundID] OR 7896[CompoundID] OR 1140[CompoundID
] OR 8042[CompoundID] OR 8058[CompoundID] OR 8078[CompoundID] OR 8087[CompoundID] OR 8117[CompoundID] OR 8133[CompoundID] OR 115224[CompoundID] OR 8175[CompoundID] OR 8194[CompoundID] OR 445639[Compou
ndID] OR 4944[CompoundID] OR 8294[CompoundID] OR 93541[CompoundID] OR 8360[CompoundID] OR 8363[CompoundID] OR 656612[CompoundID] OR 125098[CompoundID] OR 3352[CompoundID] OR 3303913[CompoundID] OR 648
05[CompoundID] OR 31200[CompoundID] OR 1712058[CompoundID] OR 31236[CompoundID] OR 31239[CompoundID] OR 31265[CompoundID] OR 31266[CompoundID] OR 31276[CompoundID] OR 6950273[CompoundID] OR 518659[Com
poundID] OR 14896[CompoundID] OR 14798[CompoundID] OR 14829[CompoundID] OR 14830[CompoundID] OR 8635[CompoundID] OR 23266[CompoundID] OR 4284[CompoundID] OR 8693[CompoundID] OR 22311[CompoundID] OR 87
59[CompoundID] OR 8785[CompoundID] OR 2723810[CompoundID] OR 8857[CompoundID] OR 3893[CompoundID] OR 9936739[CompoundID] OR 516892[CompoundID] OR 5430[CompoundID] OR 9017[CompoundID] OR 15433[Compound
ID] OR 107720[CompoundID] OR 9552081[CompoundID] OR 164825[CompoundID] OR 10275455[CompoundID] OR 16666[CompoundID] OR 9839306[CompoundID] OR 5282227[CompoundID] OR 23676745[CompoundID] OR 32881[Compo
undID] OR 91581[CompoundID] OR 39800[CompoundID] OR 33344[CompoundID] OR 15962220[CompoundID] OR 33528[CompoundID] OR 5365075[CompoundID] OR 62829[CompoundID] OR 162381[CompoundID] OR 517202[CompoundI
D] OR 6433353[CompoundID] OR 2730[CompoundID] OR 5372405[CompoundID] OR 36081[CompoundID] OR 3120[CompoundID] OR 3017[CompoundID] OR 2969[CompoundID] OR 18827[CompoundID] OR 19518[CompoundID] OR 19658
[CompoundID] OR 38283[CompoundID] OR 2758[CompoundID] OR 10112[CompoundID] OR 10340[CompoundID] OR 712[CompoundID] OR 5794[CompoundID] OR 3347[CompoundID] OR 104150[CompoundID] OR 2912[CompoundID] OR
2450[CompoundID] OR 40326[CompoundID] OR 40585[CompoundID] OR 517055[CompoundID] OR 10913[CompoundID] OR 108242[CompoundID] OR 62097[CompoundID] OR 41679[CompoundID] OR 54680676[CompoundID] OR 62118[C
ompoundID] OR 753[CompoundID] OR 1030[CompoundID] OR 23673837[CompoundID] OR 54678504[CompoundID] OR 11442[CompoundID] OR 11463[CompoundID] OR 22230[CompoundID] OR 440917[CompoundID] OR 6054[CompoundI
D] OR 43234[CompoundID] OR 22629[CompoundID] OR 3039[CompoundID] OR 2735067[CompoundID] OR 6144[CompoundID] OR 702[CompoundID] OR 284[CompoundID] OR 176[CompoundID] OR 91688[CompoundID] OR 22947[Compo
undID] OR 47445[CompoundID] OR 1711973[CompoundID] OR 243[CompoundID] OR 10342051[CompoundID] OR 5281875[CompoundID] OR 3776[CompoundID] OR 6224[CompoundID] OR 104926[CompoundID] OR 8755[CompoundID] O
R 338[CompoundID] OR 123622[CompoundID] OR 23954[CompoundID] OR 6334[CompoundID] OR 2537[CompoundID] OR 24261[CompoundID] OR 23665760[CompoundID] OR 83975[CompoundID] OR 784[CompoundID] OR 24437[Compo
undID] OR 5360315[CompoundID] OR 311[CompoundID] OR 6549[CompoundID] OR 107689[CompoundID] OR 17100[CompoundID] OR 24976875[CompoundID] OR 6654[CompoundID] OR 71245[CompoundID] OR 6442842[CompoundID]
OR 62334[CompoundID] OR 54698175[CompoundID] OR 6328154[CompoundID] OR 24762[CompoundID] OR 440950[CompoundID] OR 7017[CompoundID] OR 5281873[CompoundID] OR 323[CompoundID] OR 5281167[CompoundID] OR 7
175[CompoundID] OR 7292[CompoundID] OR 6335613[CompoundID] OR 7456[CompoundID] OR 7462[CompoundID]

> <resultIndex>
22

> <resultRange>
1-176

> <textQuery>
7628,244,25059,7618,7641,5053,637511,7714,7762,25429,8842,7794,637566,7843,174,7870,86102,7888,7896,1140,8042,8058,8078,8087,8117,8133,115224,8175,8194,445639,4944,8294,93541,8360,8363,656612,125098,3
352,3303913,64805,31200,1712058,31236,31239,31265,31266,31276,6950273,518659,14896,14798,14829,14830,8635,23266,4284,8693,22311,8759,8785,2723810,8857,3893,9936739,516892,5430,9017,15433,107720,955208
1,164825,10275455,16666,9839306,5282227,23676745,32881,91581,39800,33344,15962220,33528,5365075,62829,162381,517202,6433353,2730,5372405,36081,3120,3017,2969,18827,19518,19658,38283,2758,10112,10340,7
12,5794,3347,104150,2912,2450,40326,40585,517055,10913,108242,62097,41679,54680676,62118,753,1030,23673837,54678504,11442,11463,22230,440917,6054,43234,22629,3039,2735067,6144,702,284,176,91688,22947,
47445,1711973,243,10342051,5281875,3776,6224,104926,8755,338,123622,23954,6334,2537,24261,23665760,83975,784,24437,5360315,311,6549,107689,17100,24976875,6654,71245,6442842,62334,54698175,6328154,2476
2,440950,7017,5281873,323,5281167,7175,7292,6335613,7456,7462

$$$$
5,281,875
  SciTegic10191915303D

 59 61  0  0  0  0            999 V2000
   -4.1480   -7.0620   -1.0750 F   0  0
   -5.9770   -6.0380   -1.8610 F   0  0
   -5.7270   -6.3470    0.3420 F   0  0
   -4.9120    7.3250    1.2690 F   0  0
   -3.2240    8.5740    0.4920 F   0  0
   -3.2850    7.9950    2.6540 F   0  0
    3.6850    0.1860   -0.3450 N   0  0
    3.1840   -2.1440   -0.6640 N   0  0
    1.4780   -0.6860   -0.2280 N   0  0
    0.8720    0.3580    0.0130 N   0  0
   -2.7990    6.3520    1.0690 C   0  0
   -4.3830   -4.7660   -0.7260 C   0  0
   -5.0720   -6.0790   -0.8320 C   0  0
   -3.5700    7.5860    1.3770 C   0  0
    5.5540   -1.4770   -0.1780 C   0  0
   -1.3410    4.0170    0.4850 C   0  0
   -3.0770   -2.2800   -0.5250 C   0  0
   -1.3940    6.3700    1.1140 C   0  0
   -5.1260   -3.5980   -0.4780 C   0  0
   -3.4750    5.1660    0.7320 C   0  0
   -2.9860   -4.6900   -0.8740 C   0  0
    2.7540   -0.8520   -0.4050 C   0  0
   -0.4000    0.3410    0.1590 C   0  0
   -0.6650    5.2040    0.8220 C   0  0
   -4.4740   -2.3570   -0.3770 C   0  0
   -2.7460    3.9990    0.4410 C   0  0
   -2.3340   -3.4490   -0.7730 C   0  0
    5.1360   -0.0410   -0.5540 C   0  0
    4.6150   -2.4730   -0.8870 C   0  0
   -2.3850   -0.9620   -0.4180 C   0  0
   -0.5670    2.7780    0.1750 C   0  0
   -1.1220   -0.9320    0.0370 C   0  0
   -1.1230    1.5860    0.4460 C   0  0
    5.4870   -1.6710    1.3440 C   0  0
    6.9980   -1.7250   -0.6250 C   0  0
    3.4000    1.1270   -0.1550 H   0  0
    2.5380   -2.9090   -0.7100 H   0  0
   -0.8690    7.2790    1.3720 H   0  0
   -6.1990   -3.6500   -0.3630 H   0  0
   -4.5550    5.1450    0.6960 H   0  0
   -2.4090   -5.5830   -1.0640 H   0  0
    0.4140    5.2280    0.8590 H   0  0
   -5.0540   -1.4650   -0.1860 H   0  0
   -3.2740    3.0920    0.1830 H   0  0
   -1.2610   -3.4000   -0.8880 H   0  0
    5.3570    0.1550   -1.6040 H   0  0
    5.7000    0.6900    0.0270 H   0  0
    4.8050   -3.4920   -0.5450 H   0  0
    4.7960   -2.4650   -1.9620 H   0  0
   -2.9540   -0.0950   -0.7210 H   0  0
    0.4130    2.9200   -0.2560 H   0  0
   -0.7000   -1.8920    0.2960 H   0  0
   -2.1120    1.6240    0.8780 H   0  0
    4.4810   -1.5070    1.7300 H   0  0
    6.1560   -0.9750    1.8510 H   0  0
    5.7880   -2.6820    1.6170 H   0  0
    7.3140   -2.7350   -0.3640 H   0  0
    7.0970   -1.5890   -1.7020 H   0  0
    7.6780   -1.0260   -0.1380 H   0  0
  1 13  1  0
  2 13  1  0
  3 13  1  0
  4 14  1  0
  5 14  1  0
  6 14  1  0
  7 22  1  0
  7 28  1  0
  8 22  1  0
  8 29  1  0
  9 10  1  0
  9 22  2  0
 10 23  2  0
 11 14  1  0
 11 18  2  0
 11 20  1  0
 12 13  1  0
 12 19  2  0
 12 21  1  0
 15 28  1  0
 15 29  1  0
 15 34  1  0
 15 35  1  0
 16 24  2  0
 16 26  1  0
 16 31  1  0
 17 25  2  0
 17 27  1  0
 17 30  1  0
 18 24  1  0
 19 25  1  0
 20 26  2  0
 21 27  2  0
 23 32  1  0
 23 33  1  0
 30 32  2  0
 31 33  2  0
  7 36  1  0
  8 37  1  0
 18 38  1  0
 19 39  1  0
 20 40  1  0
 21 41  1  0
 24 42  1  0
 25 43  1  0
 26 44  1  0
 27 45  1  0
 28 46  1  0
 28 47  1  0
 29 48  1  0
 29 49  1  0
 30 50  1  0
 31 51  1  0
 32 52  1  0
 33 53  1  0
 34 54  1  0
 34 55  1  0
 34 56  1  0
 35 57  1  0
 35 58  1  0
 35 59  1  0
M  END
> <Name>
5,281,875

> <OBJECTID>
9223372135642365963

> <ActiveAidCount>
93

> <AtomChiralCount>
0

> <AtomChiralDefCount>
0

> <AtomChiralUndefCount>
0

> <BondChiralCount>
2

> <BondChiralDefCount>
2

> <BondChiralUndefCount>
0

> <CID>
5281875

> <CanonicalSmiles>
CC1(CNC(=NC1)NN=C(C=CC2=CC=C(C=C2)C(F)(F)F)C=CC3=CC=C(C=C3)C(F)(F)F)C

> <Complexity>
763

> <CovalentUnitCount>
1

> <CreateDate>
2005/03/28 00:00

> <HeavyAtomCount>
35

> <HydrogenBondAcceptorCount>
8

> <HydrogenBondDonorCount>
2

> <IUPACName>
N-[[(1E,4E)-1,5-bis[4-(trifluoromethyl)phenyl]penta-1,4-dien-3-ylidene]amino]-5,5-dimethyl-4,6-dihydro-1H-pyrimidin-2-amine

> <InChI>
InChI=1S/C25H24F6N4/c1-23(2)15-32-22(33-16-23)35-34-21(13-7-17-3-9-19(10-4-17)24(26,27)28)14-8-18-5-11-20(12-6-18)25(29,30)31/h3-14H,15-16H2,1-2H3,(H2,32,33,35)/b13-7+,14-8+

> <InChIKey>
IQVNEKKDSLOHHK-FNCQTZNRSA-N

> <IsomericSmiles>
CC1(CN=C(NC1)NN=C(/C=C/C2=CC=C(C=C2)C(F)(F)F)/C=C/C3=CC=C(C=C3)C(F)(F)F)C

> <IsotopeAtomCount>
0

> <MeSHHeading>
hydramethylnon

> <MeSHTerm>
AC-217300
Amdro
hydramethylnon
AC 217,300
hydromethylnon

> <MolecularFormula>
C25H24F6N4

> <MolecularWeight>
494.5

> <PharmAction>
Toxic Actions
Insecticides
Agrochemicals
Pesticides
Chemical Actions and Uses
Specialty Uses of Chemicals

> <RotatableBondCount>
6

> <Smiles>
FC(c1ccc(\C=C\C(\C=C\c(ccc2C(F)(F)F)cc2)=N/N=C(/NCC(C)(C)C3)\N3)cc1)(F)F

> <SourceCategory>
Legacy Depositors
Chemical Vendors
Curation Efforts
Governmental Organizations
NIH Initiatives
Subscription Services
Journal Publishers
Research and Development

> <Synonym>
HYDRAMETHYLNON
Amdro
67485-29-4
Maxforce
Combat
Wipeout
Matox
Caswell No. 839A
Caswell No. 642AB
AC 217300
UNII-J265GZ7MFJ
CL 217300
HSDB 6673
Hydramethylnon [ANSI:BSI:ISO]
EPA Pesticide Chemical Code 118401
NSC 379665
BRN 6015162
J265GZ7MFJ
AI3-29349
CHEBI:38531
2(1H)-Pyrimidinone, tetrahydro-5,5-dimethyl-, (3-(4-(trifluoromethyl)phenyl)-1-(2-(4-(trifluoromethyl)phenyl)ethenyl)-2-propenylidene)hydrazone
Tetrahydro-5,5-dimethyl-2(1H)-pyrimidinone (1,5-bis(alpha,alpha,alpha-trifluoro-p-tolyl)-1,4-pentadien-3-one)hydrazone
Tetrahydro-5,5-dimethyl-2(1H)-pyrimidinone (3-(4-(trifluoromethyl)phenyl)-1-(2-(4-(trifluoromethyl)phenyl)ethenyl)-2-propenylidene)hydrazone
hydromethylnon
5,5-dimethyltetrahydropyrimidin-2(1H)-one (3-[4-(trifluoromethyl)phenyl]-1-{2-[4-(trifluoromethyl)phenyl]ethenyl}prop-2-en-1-ylidene)hydrazone
N-[[(1E,4E)-1,5-bis[4-(trifluoromethyl)phenyl]penta-1,4-dien-3-ylidene]amino]-5,5-dimethyl-4,6-dihydro-1H-pyrimidin-2-amine
Tetrahydro-5,5-dimethyl-2(1H)-pyrimidinone[3-[4-(trifluoromethyl)phenyl]-1-[2-[4-(trifluoromethyl)phenyl]ethenyl]-2-propenylidene]hydrazone
C25H24F6N4
N-[[(1E,4E)-1,5-bis[4-(trifluoromethyl)phenyl]penta-1,4-dien-3-ylidene]amino]-5,5-dimethyl-1,3-diazinan-2-imine
N-[1,5-bis[4-(trifluoromethyl)phenyl]penta-1,4-dien-3-ylideneamino]-5,5-dimethyl-4,6-dihydro-1H-pyrimidin-2-amine
(E,E)-hydramethylnon
AC 217,300
DSSTox_CID_3868
EC 405-090-9
AC1NQZ83
DSSTox_RID_77210
DSSTox_GSID_23868
SCHEMBL26691
CHEBI:2630
CHEMBL464812
DTXSID6023868
IQVNEKKDSLOHHK-FNCQTZNRSA-N
ZINC4098975
Tox21_303161
KM1106
MFCD00128045
NSC379665
AKOS015896054
AKOS016014447
NSC-379665
Hydramethylnon 10 microg/mL in Toluene
NCGC00163783-01
NCGC00257010-01
AJ-48028
AS-12702
SC-74543
AB0012356
CAS-67485-29-4
LS-136024
C10994
485H294
A835772
AC 217,300/ NSC 379665
C-35424
Hydramethylnon, PESTANAL(R), analytical standard
I06-1851
(1E,4E)-1,5-Bis[4-(trifluoromethyl)phenyl]-1,4-pentadien-3-one (5,5-dimethyltetrahydro-2(1H)-pyrimidinylidene)hydrazone
1,5-Bis(a,a,a-trifluoro-p-tolyl)-1,4-pentadiene-3-one (1,4,5,6-Tetrahydro-5,5-dimethyl-2-pyrimidinyl)hydrazone
1,5-Bis[4-(trifluoromethyl)phenyl]-1,4-pentadien-3-one (5,5-dimethyltetrahydro-2(1H)-pyrimidinylidene)hydrazone
1,5-Bis[4-(trifluoromethyl)phenyl]-1,4-pentadien-3-one 2-(1,4,5,6-tetrahydro-5,5-dimethyl-2-pyrimidinyl)hydrazone
2(1H)-PYRIMIDINONE, TETRAHYDRO-5,5-DIMETHYL-,[3-[4-(TRIFLUOROMETHYL)PHENYL]-1-[2-[4-(TRIFLUOROMETHYL)PHENYL]ETHENYL]-2-PROPENYLIDENE]HYDRAZONE
2-(((1E,4E)-1,5-bis(4-(trifluoromethyl)phenyl)penta-1,4-dien-3-ylidene)hydrazono)-5,5-dimethylhexahydropyrimidine
2-(2-((1E,4E)-1,5-bis(4-(trifluoromethyl)phenyl)penta-1,4-dien-3-ylidene)hydrazinyl)-5,5-dimethyl-1,4,5,6-tetrahydropyrimidine
5,5-Dimethyl-perhydro-pyrimidin-2-one alpha-(4-trifluoromethylstyryl)-alpha-(4-trifluoromethyl)cinnamylidenehydrazone
5,5-dimethyltetrahydropyrimidin-2(1H)-one [(2E)-3-[4-(trifluoromethyl)phenyl]-1-{(E)-2-[4-(trifluoromethyl)phenyl]ethenyl}prop-2-en-1-ylidene]hydrazone
Pesticide8_Hydramethylnon_C25H24F6N4_2(1H)-Pyrimidinone, tetrahydro-5,5-dimethyl-, 2-[(2E)-3-[4-(trifluoromethyl)phenyl]-1-[(E)-2-[4-(trifluoromethyl)phenyl]ethenyl]-2-propen-1-ylidene]hydrazone
Tetrahydro-5,5-dimethyl-2(1H)-pyrimidinone[3-[4-(trifluoromethyl)phenyl]-1-[2-[4-(trifluoromethyl)phenyl]ethenyl]-2-propylidene]hydrazone

> <TPSA>
48.8

> <TotalAidCount>
259

> <TotalFormalCharge>
0

> <XLogP>
6.4

> <database>
PubChem Compound

> <matchingCount>
176

> <primaryID>
5281875

> <queryTranslation>
7628[CompoundID] OR 244[CompoundID] OR 25059[CompoundID] OR 7618[CompoundID] OR 7641[CompoundID] OR 5053[CompoundID] OR 637511[CompoundID] OR 7714[CompoundID] OR 7762[CompoundID] OR 25429[CompoundID]
OR 8842[CompoundID] OR 7794[CompoundID] OR 637566[CompoundID] OR 7843[CompoundID] OR 174[CompoundID] OR 7870[CompoundID] OR 86102[CompoundID] OR 7888[CompoundID] OR 7896[CompoundID] OR 1140[CompoundID
] OR 8042[CompoundID] OR 8058[CompoundID] OR 8078[CompoundID] OR 8087[CompoundID] OR 8117[CompoundID] OR 8133[CompoundID] OR 115224[CompoundID] OR 8175[CompoundID] OR 8194[CompoundID] OR 445639[Compou
ndID] OR 4944[CompoundID] OR 8294[CompoundID] OR 93541[CompoundID] OR 8360[CompoundID] OR 8363[CompoundID] OR 656612[CompoundID] OR 125098[CompoundID] OR 3352[CompoundID] OR 3303913[CompoundID] OR 648
05[CompoundID] OR 31200[CompoundID] OR 1712058[CompoundID] OR 31236[CompoundID] OR 31239[CompoundID] OR 31265[CompoundID] OR 31266[CompoundID] OR 31276[CompoundID] OR 6950273[CompoundID] OR 518659[Com
poundID] OR 14896[CompoundID] OR 14798[CompoundID] OR 14829[CompoundID] OR 14830[CompoundID] OR 8635[CompoundID] OR 23266[CompoundID] OR 4284[CompoundID] OR 8693[CompoundID] OR 22311[CompoundID] OR 87
59[CompoundID] OR 8785[CompoundID] OR 2723810[CompoundID] OR 8857[CompoundID] OR 3893[CompoundID] OR 9936739[CompoundID] OR 516892[CompoundID] OR 5430[CompoundID] OR 9017[CompoundID] OR 15433[Compound
ID] OR 107720[CompoundID] OR 9552081[CompoundID] OR 164825[CompoundID] OR 10275455[CompoundID] OR 16666[CompoundID] OR 9839306[CompoundID] OR 5282227[CompoundID] OR 23676745[CompoundID] OR 32881[Compo
undID] OR 91581[CompoundID] OR 39800[CompoundID] OR 33344[CompoundID] OR 15962220[CompoundID] OR 33528[CompoundID] OR 5365075[CompoundID] OR 62829[CompoundID] OR 162381[CompoundID] OR 517202[CompoundI
D] OR 6433353[CompoundID] OR 2730[CompoundID] OR 5372405[CompoundID] OR 36081[CompoundID] OR 3120[CompoundID] OR 3017[CompoundID] OR 2969[CompoundID] OR 18827[CompoundID] OR 19518[CompoundID] OR 19658
[CompoundID] OR 38283[CompoundID] OR 2758[CompoundID] OR 10112[CompoundID] OR 10340[CompoundID] OR 712[CompoundID] OR 5794[CompoundID] OR 3347[CompoundID] OR 104150[CompoundID] OR 2912[CompoundID] OR
2450[CompoundID] OR 40326[CompoundID] OR 40585[CompoundID] OR 517055[CompoundID] OR 10913[CompoundID] OR 108242[CompoundID] OR 62097[CompoundID] OR 41679[CompoundID] OR 54680676[CompoundID] OR 62118[C
ompoundID] OR 753[CompoundID] OR 1030[CompoundID] OR 23673837[CompoundID] OR 54678504[CompoundID] OR 11442[CompoundID] OR 11463[CompoundID] OR 22230[CompoundID] OR 440917[CompoundID] OR 6054[CompoundI
D] OR 43234[CompoundID] OR 22629[CompoundID] OR 3039[CompoundID] OR 2735067[CompoundID] OR 6144[CompoundID] OR 702[CompoundID] OR 284[CompoundID] OR 176[CompoundID] OR 91688[CompoundID] OR 22947[Compo
undID] OR 47445[CompoundID] OR 1711973[CompoundID] OR 243[CompoundID] OR 10342051[CompoundID] OR 5281875[CompoundID] OR 3776[CompoundID] OR 6224[CompoundID] OR 104926[CompoundID] OR 8755[CompoundID] O
R 338[CompoundID] OR 123622[CompoundID] OR 23954[CompoundID] OR 6334[CompoundID] OR 2537[CompoundID] OR 24261[CompoundID] OR 23665760[CompoundID] OR 83975[CompoundID] OR 784[CompoundID] OR 24437[Compo
undID] OR 5360315[CompoundID] OR 311[CompoundID] OR 6549[CompoundID] OR 107689[CompoundID] OR 17100[CompoundID] OR 24976875[CompoundID] OR 6654[CompoundID] OR 71245[CompoundID] OR 6442842[CompoundID]
OR 62334[CompoundID] OR 54698175[CompoundID] OR 6328154[CompoundID] OR 24762[CompoundID] OR 440950[CompoundID] OR 7017[CompoundID] OR 5281873[CompoundID] OR 323[CompoundID] OR 5281167[CompoundID] OR 7
175[CompoundID] OR 7292[CompoundID] OR 6335613[CompoundID] OR 7456[CompoundID] OR 7462[CompoundID]

> <resultIndex>
23

> <resultRange>
1-176

> <textQuery>
7628,244,25059,7618,7641,5053,637511,7714,7762,25429,8842,7794,637566,7843,174,7870,86102,7888,7896,1140,8042,8058,8078,8087,8117,8133,115224,8175,8194,445639,4944,8294,93541,8360,8363,656612,125098,3
352,3303913,64805,31200,1712058,31236,31239,31265,31266,31276,6950273,518659,14896,14798,14829,14830,8635,23266,4284,8693,22311,8759,8785,2723810,8857,3893,9936739,516892,5430,9017,15433,107720,955208
1,164825,10275455,16666,9839306,5282227,23676745,32881,91581,39800,33344,15962220,33528,5365075,62829,162381,517202,6433353,2730,5372405,36081,3120,3017,2969,18827,19518,19658,38283,2758,10112,10340,7
12,5794,3347,104150,2912,2450,40326,40585,517055,10913,108242,62097,41679,54680676,62118,753,1030,23673837,54678504,11442,11463,22230,440917,6054,43234,22629,3039,2735067,6144,702,284,176,91688,22947,
47445,1711973,243,10342051,5281875,3776,6224,104926,8755,338,123622,23954,6334,2537,24261,23665760,83975,784,24437,5360315,311,6549,107689,17100,24976875,6654,71245,6442842,62334,54698175,6328154,2476
2,440950,7017,5281873,323,5281167,7175,7292,6335613,7456,7462

$$$$
5,281,873
  SciTegic10191915303D

 50 52  0  0  1  0            999 V2000
   -2.2330    0.4220   -2.9900 Cl  0  0
   -3.4590   -1.8050   -3.9080 F   0  0
   -4.6130   -2.2010   -2.0330 F   0  0
   -2.6450   -3.2110   -2.3690 F   0  0
   -0.0740    0.2750    2.8260 O   0  0
   -0.5020    2.4280    2.3750 O   0  0
    3.4430   -0.5620   -1.1330 O   0  0
    1.3890    2.5290    4.8630 N   0  0
   -2.3990    1.6520    0.2190 C   0  0
   -1.9080    0.7870    1.3690 C   0  0  3  0  0  0
   -1.6330    0.3710   -0.0610 C   0  0  3  0  0  0
   -0.7580    1.2540    2.2400 C   0  0
   -2.3480   -0.8400   -0.6310 C   0  0
   -3.9010    1.6820   -0.0410 C   0  0
   -1.6840    2.9690   -0.0650 C   0  0
   -2.6510   -0.8870   -1.9380 C   0  0
   -3.3600   -2.0590   -2.5670 C   0  0
    1.2810    0.6290    3.0620 C   0  0  3  0  0  0
    1.9240    1.0100    1.7770 C   0  0
    1.3420    1.6880    4.0660 C   0  0
    2.3940    0.0140    0.9020 C   0  0
    2.0640    2.3650    1.4350 C   0  0
    3.0040    0.3690   -0.3150 C   0  0
    2.6720    2.7250    0.2190 C   0  0
    3.1410    1.7270   -0.6520 C   0  0
    2.8260   -1.7280   -1.1330 C   0  0
    1.4200   -1.7830   -1.1330 C   0  0
    3.5700   -2.9220   -1.1330 C   0  0
    0.7620   -3.0230   -1.1330 C   0  0
    2.9120   -4.1640   -1.1330 C   0  0
    1.5080   -4.2150   -1.1330 C   0  0
   -2.6680    0.2170    1.9040 H   0  0
   -0.6060    0.4860   -0.4120 H   0  0
   -2.6490   -1.7030   -0.0550 H   0  0
   -4.1290    1.8460   -1.0940 H   0  0
   -4.3770    2.4790    0.5310 H   0  0
   -4.3620    0.7380    0.2560 H   0  0
   -1.9010    3.3150   -1.0760 H   0  0
   -1.9900    3.7360    0.6460 H   0  0
   -0.6040    2.8480    0.0210 H   0  0
    1.7580   -0.2710    3.4530 H   0  0
    2.2890   -1.0290    1.1640 H   0  0
    1.7050    3.1370    2.1010 H   0  0
    2.7790    3.7660   -0.0430 H   0  0
    3.6070    2.0060   -1.5860 H   0  0
    0.8440   -0.8690   -1.1330 H   0  0
    4.6480   -2.8870   -1.1330 H   0  0
   -0.3180   -3.0620   -1.1330 H   0  0
    3.4860   -5.0780   -1.1330 H   0  0
    1.0020   -5.1700   -1.1330 H   0  0
  1 16  1  0
  2 17  1  0
  3 17  1  0
  4 17  1  0
  5 12  1  0
  5 18  1  0
  6 12  2  0
  7 23  1  0
  7 26  1  0
  8 20  3  0
  9 10  1  0
  9 11  1  0
  9 14  1  0
  9 15  1  0
 10 11  1  0
 10 12  1  0
 11 13  1  0
 13 16  2  0
 16 17  1  0
 18 19  1  0
 18 20  1  0
 19 21  2  0
 19 22  1  0
 21 23  1  0
 22 24  2  0
 23 25  2  0
 24 25  1  0
 26 27  2  0
 26 28  1  0
 27 29  1  0
 28 30  2  0
 29 31  2  0
 30 31  1  0
 10 32  1  0
 11 33  1  0
 13 34  1  0
 14 35  1  0
 14 36  1  0
 14 37  1  0
 15 38  1  0
 15 39  1  0
 15 40  1  0
 18 41  1  0
 21 42  1  0
 22 43  1  0
 24 44  1  0
 25 45  1  0
 27 46  1  0
 28 47  1  0
 29 48  1  0
 30 49  1  0
 31 50  1  0
M  END
> <Name>
5,281,873

> <OBJECTID>
9223372139937333259

> <ActiveAidCount>
0

> <AtomChiralCount>
3

> <AtomChiralDefCount>
0

> <AtomChiralUndefCount>
3

> <BondChiralCount>
1

> <BondChiralDefCount>
1

> <BondChiralUndefCount>
0

> <CID>
5281873

> <CanonicalSmiles>
CC1(C(C1C(=O)OC(C#N)C2=CC(=CC=C2)OC3=CC=CC=C3)C=C(C(F)(F)F)Cl)C

> <Complexity>
736

> <CovalentUnitCount>
1

> <CreateDate>
2005/06/24 00:00

> <HeavyAtomCount>
31

> <HydrogenBondAcceptorCount>
7

> <HydrogenBondDonorCount>
0

> <IUPACName>
[cyano-(3-phenoxyphenyl)methyl] 3-[(Z)-2-chloro-3,3,3-trifluoroprop-1-enyl]-2,2-dimethylcyclopropane-1-carboxylate

> <InChI>
InChI=1S/C23H19ClF3NO3/c1-22(2)17(12-19(24)23(25,26)27)20(22)21(29)31-18(13-28)14-7-6-10-16(11-14)30-15-8-4-3-5-9-15/h3-12,17-18,20H,1-2H3/b19-12-

> <InChIKey>
ZXQYGBMAQZUVMI-UNOMPAQXSA-N

> <IsomericSmiles>
CC1(C(C1C(=O)OC(C#N)C2=CC(=CC=C2)OC3=CC=CC=C3)/C=C(/C(F)(F)F)\Cl)C

> <IsotopeAtomCount>
0

> <MeSHHeading>
cyhalothrin

> <MeSHTerm>
OMS 3021
PP 321
OMS-3021
alpha-cyano-3-phenoxybenzyl 3-(2-chloro-3,3,3-trifluoroprop-1-enyl)-2,2-dimethyl cyclopropanecarboxylate
cyhalothrin
lambda-cyhalothrin
cyclopropanecarboxylic acid, 3-(2-chloro-3,3,3-trifluoro-1-propenyl)-2,2-dimethyl-, cyano(3-phenoxyphenyl)methyl ester
lambdacyhalothrin
lambclacyhalothrin

> <MolecularFormula>
C23H19ClF3NO3

> <MolecularWeight>
449.8

> <PharmAction>
Agrochemicals
Pesticides
Fungicides, Industrial
Specialty Uses of Chemicals
Chemical Actions and Uses
Insecticides
Toxic Actions

> <RotatableBondCount>
7

> <Smiles>
Cl\C(\C(F)(F)F)=C/C(C1C(=O)OC(C#N)c2cccc(c2)Oc3ccccc3)C1(C)C

> <SourceCategory>
Legacy Depositors
Chemical Vendors
Research and Development
Curation Efforts
Governmental Organizations
NIH Initiatives
Subscription Services
Journal Publishers

> <Synonym>
CYHALOTHRIN
Cyhalothrine
68085-85-8
Grenade
lambda-Cyhalothrin
PP 563
ICI 146814
Scimitar
Saber
CHEBI:4035
ZXQYGBMAQZUVMI-UNOMPAQXSA-N
Cyhalothrin (BAN)
Cyhalothrin [BAN]
PP-563
Cyhalothrin [BSI:ISO]
Cyhalothrine [ISO-French]
[cyano-(3-phenoxyphenyl)methyl] 3-[(Z)-2-chloro-3,3,3-trifluoro-prop-1-enyl]-2,2-dimethyl-cyclopropanecarboxylate
3-(2-Chloro-3,3,3-trifluoro-1-propenyl)-2,2-dimethylcyclopropanecarboxylic acid cyano(3-phenoxyphenyl)methyl ester
W-111325
HSDB 6791
Cyhalothrin solution
EINECS 268-450-2
EPA Pesticide Chemical Code 128867
91465-08-6
Cyclopropanecarboxylic acid, 3-(2-chloro-3,3,3-trifluoro-1-propenyl)-2,2-dimethyl-, cyano(3-phenoxyphenyl)methyl ester
cyano(3-phenoxyphenyl)methyl 3-[(1Z)-2-chloro-3,3,3-trifluoroprop-1-en-1-yl]-2,2-dimethylcyclopropanecarboxylate
alpha-Cyhalothrin
(1alpha,3alpha(Z))-(+-)-Cyano-(3-phenoxyphenyl)methyl 3-(2-chloro-3,3,3-trifluoro-1-propenyl)-2,2-dimethylcyclopropanecarboxylate
(RS)-alpha-Cyano-3-phenoxybenzyl (Z)-(1RS,3RS)-(2-chloro-3,3,3- trifluoropropenyl)-2,2-dimethylcyclopropanecarboxylate
3-(2-Chloro-3,3,3-trifluoro-1-propenyl)-2,2-dimethylcyclopropanecarboxylic acid cyan(3-phenoxyphenyl)methyl ester
alpha-Cyano-3-phenoxybenzyl 3-(2-chloro-3,3,3-trifluoroprop-1-enyl)-2,2-dimethylcyclopropanecarboxylate
Ici-pp 563
AC1NQZ7X
SCHEMBL23923
Coopertix [veterinary] (TN)
Cyhalothrin, analytical standard
CHEMBL2105498
DTXSID6023997
(RS)-alpha-Cyano-3-phenoxybenzyl (Z)-(1RS,3RS)-3-(2-chloro-3,3,3-trifluoropropenyl)-2,2-dimethylcyclopropanecarboxylate
SB18909
NCGC00248527-01
AN-38202
AS-15902
527-EP2274983A1
527-EP2275422A1
527-EP2280009A1
527-EP2292608A1
527-EP2308857A1
527-EP2308858A1
527-EP2311816A1
527-EP2311817A1
527-EP2314583A1
538-EP2308857A1
C10983
D07762
085C858
Cyhalothrin solution, 100 mug/mL in acetonitrile, PESTANAL(R), analytical standard
(Z)-cyano(3-phenoxyphenyl)methyl 3-(2-chloro-3,3,3-trifluoroprop-1-enyl)-2,2-dimethylcyclopropanecarboxylate
[cyano-(3-phenoxyphenyl)methyl] 3-[(Z)-2-chloro-3,3,3-trifluoroprop-1-enyl]-2,2-dimethylcyclopropane-1-carboxylate
3-(2-Chloro-3,3,3-trifluoro-1-propenyl)-2,2-dimethylcycloproanecarboxylic acid cyano(3-phenoxyphenyl)methyl ester
3-[(Z)-2-Chloro-3,3,3-trifluoro-1-propenyl]-2,2-dimethylcyclopropanecarboxylic acid alpha-cyano-3-phenoxybenzyl ester
Cyano(3-phenoxyphenyl)methyl 3-(2-chloro-3,3,3-trifluoro-1-propen-1-yl)-2,2-dimethylcyclopropanecarboxylate

> <TPSA>
59.3

> <TotalAidCount>
4

> <TotalFormalCharge>
0

> <XLogP>
6.1

> <database>
PubChem Compound

> <matchingCount>
176

> <primaryID>
5281873

> <queryTranslation>
7628[CompoundID] OR 244[CompoundID] OR 25059[CompoundID] OR 7618[CompoundID] OR 7641[CompoundID] OR 5053[CompoundID] OR 637511[CompoundID] OR 7714[CompoundID] OR 7762[CompoundID] OR 25429[CompoundID]
OR 8842[CompoundID] OR 7794[CompoundID] OR 637566[CompoundID] OR 7843[CompoundID] OR 174[CompoundID] OR 7870[CompoundID] OR 86102[CompoundID] OR 7888[CompoundID] OR 7896[CompoundID] OR 1140[CompoundID
] OR 8042[CompoundID] OR 8058[CompoundID] OR 8078[CompoundID] OR 8087[CompoundID] OR 8117[CompoundID] OR 8133[CompoundID] OR 115224[CompoundID] OR 8175[CompoundID] OR 8194[CompoundID] OR 445639[Compou
ndID] OR 4944[CompoundID] OR 8294[CompoundID] OR 93541[CompoundID] OR 8360[CompoundID] OR 8363[CompoundID] OR 656612[CompoundID] OR 125098[CompoundID] OR 3352[CompoundID] OR 3303913[CompoundID] OR 648
05[CompoundID] OR 31200[CompoundID] OR 1712058[CompoundID] OR 31236[CompoundID] OR 31239[CompoundID] OR 31265[CompoundID] OR 31266[CompoundID] OR 31276[CompoundID] OR 6950273[CompoundID] OR 518659[Com
poundID] OR 14896[CompoundID] OR 14798[CompoundID] OR 14829[CompoundID] OR 14830[CompoundID] OR 8635[CompoundID] OR 23266[CompoundID] OR 4284[CompoundID] OR 8693[CompoundID] OR 22311[CompoundID] OR 87
59[CompoundID] OR 8785[CompoundID] OR 2723810[CompoundID] OR 8857[CompoundID] OR 3893[CompoundID] OR 9936739[CompoundID] OR 516892[CompoundID] OR 5430[CompoundID] OR 9017[CompoundID] OR 15433[Compound
ID] OR 107720[CompoundID] OR 9552081[CompoundID] OR 164825[CompoundID] OR 10275455[CompoundID] OR 16666[CompoundID] OR 9839306[CompoundID] OR 5282227[CompoundID] OR 23676745[CompoundID] OR 32881[Compo
undID] OR 91581[CompoundID] OR 39800[CompoundID] OR 33344[CompoundID] OR 15962220[CompoundID] OR 33528[CompoundID] OR 5365075[CompoundID] OR 62829[CompoundID] OR 162381[CompoundID] OR 517202[CompoundI
D] OR 6433353[CompoundID] OR 2730[CompoundID] OR 5372405[CompoundID] OR 36081[CompoundID] OR 3120[CompoundID] OR 3017[CompoundID] OR 2969[CompoundID] OR 18827[CompoundID] OR 19518[CompoundID] OR 19658
[CompoundID] OR 38283[CompoundID] OR 2758[CompoundID] OR 10112[CompoundID] OR 10340[CompoundID] OR 712[CompoundID] OR 5794[CompoundID] OR 3347[CompoundID] OR 104150[CompoundID] OR 2912[CompoundID] OR
2450[CompoundID] OR 40326[CompoundID] OR 40585[CompoundID] OR 517055[CompoundID] OR 10913[CompoundID] OR 108242[CompoundID] OR 62097[CompoundID] OR 41679[CompoundID] OR 54680676[CompoundID] OR 62118[C
ompoundID] OR 753[CompoundID] OR 1030[CompoundID] OR 23673837[CompoundID] OR 54678504[CompoundID] OR 11442[CompoundID] OR 11463[CompoundID] OR 22230[CompoundID] OR 440917[CompoundID] OR 6054[CompoundI
D] OR 43234[CompoundID] OR 22629[CompoundID] OR 3039[CompoundID] OR 2735067[CompoundID] OR 6144[CompoundID] OR 702[CompoundID] OR 284[CompoundID] OR 176[CompoundID] OR 91688[CompoundID] OR 22947[Compo
undID] OR 47445[CompoundID] OR 1711973[CompoundID] OR 243[CompoundID] OR 10342051[CompoundID] OR 5281875[CompoundID] OR 3776[CompoundID] OR 6224[CompoundID] OR 104926[CompoundID] OR 8755[CompoundID] O
R 338[CompoundID] OR 123622[CompoundID] OR 23954[CompoundID] OR 6334[CompoundID] OR 2537[CompoundID] OR 24261[CompoundID] OR 23665760[CompoundID] OR 83975[CompoundID] OR 784[CompoundID] OR 24437[Compo
undID] OR 5360315[CompoundID] OR 311[CompoundID] OR 6549[CompoundID] OR 107689[CompoundID] OR 17100[CompoundID] OR 24976875[CompoundID] OR 6654[CompoundID] OR 71245[CompoundID] OR 6442842[CompoundID]
OR 62334[CompoundID] OR 54698175[CompoundID] OR 6328154[CompoundID] OR 24762[CompoundID] OR 440950[CompoundID] OR 7017[CompoundID] OR 5281873[CompoundID] OR 323[CompoundID] OR 5281167[CompoundID] OR 7
175[CompoundID] OR 7292[CompoundID] OR 6335613[CompoundID] OR 7456[CompoundID] OR 7462[CompoundID]

> <resultIndex>
24

> <resultRange>
1-176

> <textQuery>
7628,244,25059,7618,7641,5053,637511,7714,7762,25429,8842,7794,637566,7843,174,7870,86102,7888,7896,1140,8042,8058,8078,8087,8117,8133,115224,8175,8194,445639,4944,8294,93541,8360,8363,656612,125098,3
352,3303913,64805,31200,1712058,31236,31239,31265,31266,31276,6950273,518659,14896,14798,14829,14830,8635,23266,4284,8693,22311,8759,8785,2723810,8857,3893,9936739,516892,5430,9017,15433,107720,955208
1,164825,10275455,16666,9839306,5282227,23676745,32881,91581,39800,33344,15962220,33528,5365075,62829,162381,517202,6433353,2730,5372405,36081,3120,3017,2969,18827,19518,19658,38283,2758,10112,10340,7
12,5794,3347,104150,2912,2450,40326,40585,517055,10913,108242,62097,41679,54680676,62118,753,1030,23673837,54678504,11442,11463,22230,440917,6054,43234,22629,3039,2735067,6144,702,284,176,91688,22947,
47445,1711973,243,10342051,5281875,3776,6224,104926,8755,338,123622,23954,6334,2537,24261,23665760,83975,784,24437,5360315,311,6549,107689,17100,24976875,6654,71245,6442842,62334,54698175,6328154,2476
2,440950,7017,5281873,323,5281167,7175,7292,6335613,7456,7462

$$$$
5,281,167
  SciTegic10191915303D

 19 18  0  0  0  0            999 V2000
    2.7560    2.1270   -0.3930 O   0  0
    1.3500    2.2370   -0.3890 C   0  0
    0.7670    0.8890    0.0370 C   0  0
   -0.7380    0.8890    0.0370 C   0  0
   -1.3790   -0.2910    0.0370 C   0  0
   -0.5590   -1.5530    0.0370 C   0  0
   -1.3710   -2.7770    0.4630 C   0  0
    3.1090    2.9890   -0.6660 H   0  0
    1.0720    3.0180    0.3180 H   0  0
    1.0270    2.4940   -1.3990 H   0  0
    1.1370    0.7070    1.0450 H   0  0
    1.1370    0.0900   -0.6040 H   0  0
   -1.2170    1.8580    0.0370 H   0  0
   -2.4570   -0.2320    0.0370 H   0  0
   -0.2050   -1.7650   -0.9730 H   0  0
    0.3120   -1.4280    0.6780 H   0  0
   -0.7850   -3.6870    0.3490 H   0  0
   -1.6900   -2.6850    1.5020 H   0  0
   -2.2660   -2.8790   -0.1530 H   0  0
  1  2  1  0
  2  3  1  0
  3  4  1  0
  4  5  2  0
  5  6  1  0
  6  7  1  0
  1  8  1  0
  2  9  1  0
  2 10  1  0
  3 11  1  0
  3 12  1  0
  4 13  1  0
  5 14  1  0
  6 15  1  0
  6 16  1  0
  7 17  1  0
  7 18  1  0
  7 19  1  0
M  END
> <Name>
5,281,167

> <OBJECTID>
9223372144232300555

> <ActiveAidCount>
1

> <AtomChiralCount>
0

> <AtomChiralDefCount>
0

> <AtomChiralUndefCount>
0

> <BondChiralCount>
1

> <BondChiralDefCount>
1

> <BondChiralUndefCount>
0

> <CID>
5281167

> <CanonicalSmiles>
CCC=CCCO

> <Complexity>
48.1

> <CovalentUnitCount>
1

> <CreateDate>
2005/03/26 00:00

> <HeavyAtomCount>
7

> <HydrogenBondAcceptorCount>
1

> <HydrogenBondDonorCount>
1

> <IUPACName>
(Z)-hex-3-en-1-ol

> <InChI>
InChI=1S/C6H12O/c1-2-3-4-5-6-7/h3-4,7H,2,5-6H2,1H3/b4-3-

> <InChIKey>
UFLHIIWVXFIJGU-ARJAWSKDSA-N

> <IsomericSmiles>
CC/C=C\CCO

> <IsotopeAtomCount>
0

> <MeSHHeading>
3-hexen-1-ol

> <MeSHTerm>
3-hexen-1-ol, (E)-isomer
cis-3-hexen-1-ol
3-hexen-1-ol
3-hexen-1-ol, (Z)-isomer
cis-3-hexenol

> <MolecularFormula>
C6H12O

> <MolecularWeight>
100.16

> <RotatableBondCount>
3

> <Smiles>
OCC\C=C/CC

> <SourceCategory>
Legacy Depositors
Chemical Vendors
Research and Development
Curation Efforts
Governmental Organizations
NIH Initiatives
Subscription Services
Journal Publishers

> <Synonym>
cis-3-Hexen-1-ol
(Z)-Hex-3-en-1-ol
cis-3-Hexenol
928-96-1
Leaf alcohol
Blatteralkohol
(Z)-3-Hexen-1-ol
Z-3-Hexenol
(3Z)-hex-3-en-1-ol
3-Hexenol
3-Hexen-1-ol, (Z)-
3-Hexen-1-ol, cis-
beta-gamma-Hexenol
3Z-hexenol
cis-3-Hexenol (natural)
3-Hexen-1-ol
3-Hexenol, cis-
3-(Z)-Hexenol
cis-3-Hexene-1-ol
3-Hexen-1-ol, (3Z)-
UNII-V14F8G75P4
FEMA No. 2563
cis-Hex-3-en-1-ol
.beta.,.gamma.-Hexenol
EINECS 213-192-8
MFCD00063217
NSC 74451
(3Z)-3-Hexen-1-ol
(Z)-3-HEXENOL
BRN 1719712
HEXEN-30L-1
AI3-34793
cis-3-Hexen-1-ol, 98%
CHEBI:28857
UFLHIIWVXFIJGU-ARJAWSKDSA-N
V14F8G75P4
cis-Hex-3-enol
(3e)-hexenol
(e)-3-hexenol
cis-Hex-3-en-1ol
(Z)Hex-3-enol
Hex-3(Z)-enol
c-3-Hexen-1-ol
(Z)-hex-3-en-ol
Blatteralkohol (German)
3-(z)-hexen-1-ol
(Z)-3-hexenyl alcohol
AC1NQY5K
DSSTox_CID_2137
bmse000369
(3Z)hex-3-en-1-ol
EC 213-192-8
(Z)-Hex-3-ene-1-ol
Hex-3( Z)-en-1-ol
DSSTox_RID_76503
DSSTox_GSID_22137
4-01-00-02141 (Beilstein Handbook Reference)
SCHEMBL112920
(3 Z)-hex-3-en-1-ol
WLN: Q3U3 -C
(3Z)-3-Hexen-1-ol #
Cis 3 Hexenol (Leaf Alcohol)
CHEMBL2251452
DTXSID6022137
HSDB 8267
BCP29150
NSC74451
ZINC4658605
Tox21_301011
5703AC
LMFA05000059
NSC-74451
SBB007739
AKOS015838970
cis-3-Hexen-1-ol, analytical standard
LS-2802
NCGC00248252-01
NCGC00254913-01
AJ-51853
AN-48014
CAS-928-96-1
SC-25020
cis-3-Hexen-1-ol, >=98%, FCC, FG
cis-3-HEXEN-1-OL (LEAF ALCOHOL) FCC
ST24026695
C08492
cis-3-Hexen-1-ol, natural, >98%, FCC, FG
I14-6245
J-640467
J-800474
UNII-2PL1637OP6 component UFLHIIWVXFIJGU-ARJAWSKDSA-N
(3Z)-3-Hexen-1-ol (z)-3-hexen-1-o

> <TPSA>
20.2

> <TotalAidCount>
245

> <TotalFormalCharge>
0

> <XLogP>
1.3

> <database>
PubChem Compound

> <matchingCount>
176

> <primaryID>
5281167

> <queryTranslation>
7628[CompoundID] OR 244[CompoundID] OR 25059[CompoundID] OR 7618[CompoundID] OR 7641[CompoundID] OR 5053[CompoundID] OR 637511[CompoundID] OR 7714[CompoundID] OR 7762[CompoundID] OR 25429[CompoundID]
OR 8842[CompoundID] OR 7794[CompoundID] OR 637566[CompoundID] OR 7843[CompoundID] OR 174[CompoundID] OR 7870[CompoundID] OR 86102[CompoundID] OR 7888[CompoundID] OR 7896[CompoundID] OR 1140[CompoundID
] OR 8042[CompoundID] OR 8058[CompoundID] OR 8078[CompoundID] OR 8087[CompoundID] OR 8117[CompoundID] OR 8133[CompoundID] OR 115224[CompoundID] OR 8175[CompoundID] OR 8194[CompoundID] OR 445639[Compou
ndID] OR 4944[CompoundID] OR 8294[CompoundID] OR 93541[CompoundID] OR 8360[CompoundID] OR 8363[CompoundID] OR 656612[CompoundID] OR 125098[CompoundID] OR 3352[CompoundID] OR 3303913[CompoundID] OR 648
05[CompoundID] OR 31200[CompoundID] OR 1712058[CompoundID] OR 31236[CompoundID] OR 31239[CompoundID] OR 31265[CompoundID] OR 31266[CompoundID] OR 31276[CompoundID] OR 6950273[CompoundID] OR 518659[Com
poundID] OR 14896[CompoundID] OR 14798[CompoundID] OR 14829[CompoundID] OR 14830[CompoundID] OR 8635[CompoundID] OR 23266[CompoundID] OR 4284[CompoundID] OR 8693[CompoundID] OR 22311[CompoundID] OR 87
59[CompoundID] OR 8785[CompoundID] OR 2723810[CompoundID] OR 8857[CompoundID] OR 3893[CompoundID] OR 9936739[CompoundID] OR 516892[CompoundID] OR 5430[CompoundID] OR 9017[CompoundID] OR 15433[Compound
ID] OR 107720[CompoundID] OR 9552081[CompoundID] OR 164825[CompoundID] OR 10275455[CompoundID] OR 16666[CompoundID] OR 9839306[CompoundID] OR 5282227[CompoundID] OR 23676745[CompoundID] OR 32881[Compo
undID] OR 91581[CompoundID] OR 39800[CompoundID] OR 33344[CompoundID] OR 15962220[CompoundID] OR 33528[CompoundID] OR 5365075[CompoundID] OR 62829[CompoundID] OR 162381[CompoundID] OR 517202[CompoundI
D] OR 6433353[CompoundID] OR 2730[CompoundID] OR 5372405[CompoundID] OR 36081[CompoundID] OR 3120[CompoundID] OR 3017[CompoundID] OR 2969[CompoundID] OR 18827[CompoundID] OR 19518[CompoundID] OR 19658
[CompoundID] OR 38283[CompoundID] OR 2758[CompoundID] OR 10112[CompoundID] OR 10340[CompoundID] OR 712[CompoundID] OR 5794[CompoundID] OR 3347[CompoundID] OR 104150[CompoundID] OR 2912[CompoundID] OR
2450[CompoundID] OR 40326[CompoundID] OR 40585[CompoundID] OR 517055[CompoundID] OR 10913[CompoundID] OR 108242[CompoundID] OR 62097[CompoundID] OR 41679[CompoundID] OR 54680676[CompoundID] OR 62118[C
ompoundID] OR 753[CompoundID] OR 1030[CompoundID] OR 23673837[CompoundID] OR 54678504[CompoundID] OR 11442[CompoundID] OR 11463[CompoundID] OR 22230[CompoundID] OR 440917[CompoundID] OR 6054[CompoundI
D] OR 43234[CompoundID] OR 22629[CompoundID] OR 3039[CompoundID] OR 2735067[CompoundID] OR 6144[CompoundID] OR 702[CompoundID] OR 284[CompoundID] OR 176[CompoundID] OR 91688[CompoundID] OR 22947[Compo
undID] OR 47445[CompoundID] OR 1711973[CompoundID] OR 243[CompoundID] OR 10342051[CompoundID] OR 5281875[CompoundID] OR 3776[CompoundID] OR 6224[CompoundID] OR 104926[CompoundID] OR 8755[CompoundID] O
R 338[CompoundID] OR 123622[CompoundID] OR 23954[CompoundID] OR 6334[CompoundID] OR 2537[CompoundID] OR 24261[CompoundID] OR 23665760[CompoundID] OR 83975[CompoundID] OR 784[CompoundID] OR 24437[Compo
undID] OR 5360315[CompoundID] OR 311[CompoundID] OR 6549[CompoundID] OR 107689[CompoundID] OR 17100[CompoundID] OR 24976875[CompoundID] OR 6654[CompoundID] OR 71245[CompoundID] OR 6442842[CompoundID]
OR 62334[CompoundID] OR 54698175[CompoundID] OR 6328154[CompoundID] OR 24762[CompoundID] OR 440950[CompoundID] OR 7017[CompoundID] OR 5281873[CompoundID] OR 323[CompoundID] OR 5281167[CompoundID] OR 7
175[CompoundID] OR 7292[CompoundID] OR 6335613[CompoundID] OR 7456[CompoundID] OR 7462[CompoundID]

> <resultIndex>
25

> <resultRange>
1-176

> <textQuery>
7628,244,25059,7618,7641,5053,637511,7714,7762,25429,8842,7794,637566,7843,174,7870,86102,7888,7896,1140,8042,8058,8078,8087,8117,8133,115224,8175,8194,445639,4944,8294,93541,8360,8363,656612,125098,3
352,3303913,64805,31200,1712058,31236,31239,31265,31266,31276,6950273,518659,14896,14798,14829,14830,8635,23266,4284,8693,22311,8759,8785,2723810,8857,3893,9936739,516892,5430,9017,15433,107720,955208
1,164825,10275455,16666,9839306,5282227,23676745,32881,91581,39800,33344,15962220,33528,5365075,62829,162381,517202,6433353,2730,5372405,36081,3120,3017,2969,18827,19518,19658,38283,2758,10112,10340,7
12,5794,3347,104150,2912,2450,40326,40585,517055,10913,108242,62097,41679,54680676,62118,753,1030,23673837,54678504,11442,11463,22230,440917,6054,43234,22629,3039,2735067,6144,702,284,176,91688,22947,
47445,1711973,243,10342051,5281875,3776,6224,104926,8755,338,123622,23954,6334,2537,24261,23665760,83975,784,24437,5360315,311,6549,107689,17100,24976875,6654,71245,6442842,62334,54698175,6328154,2476
2,440950,7017,5281873,323,5281167,7175,7292,6335613,7456,7462

$$$$
3,303,913
  SciTegic10191915303D

 25 26  0  0  0  0            999 V2000
   -0.5660    5.8120   -1.7150 N   0  0
   -0.4670    4.7910   -1.1760 C   0  0
   -0.3500    3.5230   -0.5140 C   0  0
   -0.2150    2.2850   -1.0200 N   0  0
   -0.1410    1.3880   -0.0310 N   0  0
    0.0000    0.0430   -0.2230 C   0  0
   -1.1330   -0.8130   -0.1500 C   0  0
   -2.7270   -0.2310    0.1760 Cl  0  0
   -0.9760   -2.1980   -0.3520 C   0  0
    0.2870   -2.7410   -0.6230 C   0  0
    0.4400   -4.2030   -0.8340 C   0  0
    1.2230   -4.7310    0.1600 F   0  0
    1.0290   -4.4320   -2.0510 F   0  0
   -0.7970   -4.7990   -0.8070 F   0  0
    1.4080   -1.9010   -0.6970 C   0  0
    1.2770   -0.5140   -0.4980 C   0  0
    2.7110    0.4430   -0.6040 Cl  0  0
   -0.2230    2.0210    1.1740 C   0  0
   -0.1840    1.4240    2.5190 N   0  0
   -0.3570    3.3980    0.8890 C   0  0
   -1.8320   -2.8580   -0.2950 H   0  0
    2.3770   -2.3360   -0.9080 H   0  0
   -0.2620    2.0080    3.3280 H   0  0
   -0.0760    0.4350    2.6250 H   0  0
   -0.4490    4.1830    1.6270 H   0  0
  1  2  3  0
  2  3  1  0
  3  4  2  0
  3 20  1  0
  4  5  1  0
  5  6  1  0
  5 18  1  0
  6  7  2  0
  6 16  1  0
  7  8  1  0
  7  9  1  0
  9 10  2  0
 10 11  1  0
 10 15  1  0
 11 12  1  0
 11 13  1  0
 11 14  1  0
 15 16  2  0
 16 17  1  0
 18 19  1  0
 18 20  2  0
  9 21  1  0
 15 22  1  0
 19 23  1  0
 19 24  1  0
 20 25  1  0
M  END
> <Name>
3,303,913

> <OBJECTID>
9223372148527267851

> <ActiveAidCount>
0

> <AtomChiralCount>
0

> <AtomChiralDefCount>
0

> <AtomChiralUndefCount>
0

> <BondChiralCount>
0

> <BondChiralDefCount>
0

> <BondChiralUndefCount>
0

> <CID>
3303913

> <CanonicalSmiles>
C1=C(C=C(C(=C1Cl)N2C(=CC(=N2)C#N)N)Cl)C(F)(F)F

> <Complexity>
398

> <CovalentUnitCount>
1

> <CreateDate>
2005/09/06 00:00

> <HeavyAtomCount>
20

> <HydrogenBondAcceptorCount>
6

> <HydrogenBondDonorCount>
1

> <IUPACName>
5-amino-1-[2,6-dichloro-4-(trifluoromethyl)phenyl]pyrazole-3-carbonitrile

> <InChI>
InChI=1S/C11H5Cl2F3N4/c12-7-1-5(11(14,15)16)2-8(13)10(7)20-9(18)3-6(4-17)19-20/h1-3H,18H2

> <InChIKey>
QPZYPAMYHBOUTC-UHFFFAOYSA-N

> <IsomericSmiles>
C1=C(C=C(C(=C1Cl)N2C(=CC(=N2)C#N)N)Cl)C(F)(F)F

> <IsotopeAtomCount>
0

> <MolecularFormula>
C11H5Cl2F3N4

> <MolecularWeight>
321.08

> <RotatableBondCount>
1

> <Smiles>
N#Cc1cc(N)n(c2c(Cl)cc(C(F)(F)F)cc2Cl)n1

> <SourceCategory>
Chemical Vendors
Legacy Depositors
Research and Development
Curation Efforts
Governmental Organizations
Subscription Services
Journal Publishers

> <Synonym>
120068-79-3
5-Amino-3-cyano-1-(2,6-dichloro-4-trifluoromethylphenyl)pyrazole
5-Amino-1-(2,6-dichloro-4-(trifluoromethyl)phenyl)-1H-pyrazole-3-carbonitrile
5-Amino-1-(2,6-dichloro-4-trifluoromethylphenyl)-3-cycano pyrazole
5-Amino-3-cyano-1-[2,6-dichloro-4-(trifluoromethyl)phenyl]pyrazole
5-amino-1-[2,6-dichloro-4-(trifluoromethyl)phenyl]-1H-pyrazole-3-carbonitrile
5-amino-1-[2,6-dichloro-4-(trifluoromethyl)phenyl]pyrazole-3-carbonitrile
AK-28741
5-Amino-3-cyano-1-[2,6-dichloro-4-(trifluoromethyl)phenyl]-1H-pyrazole
QPZYPAMYHBOUTC-UHFFFAOYSA-N
AC1MNH6K
ACMC-20a01f
C11H5Cl2F3N4
KSC497G4B
SCHEMBL239495
CTK3J7340
DTXSID20391260
KS-00000DR8
ZINC2559778
AC-044
ANW-50977
BBL004123
CA-428
MFCD00227537
STK292765
AKOS005107303
CS-W002535
DF10056
MCULE-3857003509
MS-1402
RTC-062771
TRA0010660
AJ-40369
AN-16175
BC204894
BR-28741
CJ-09485
S909
SC-51026
SY021310
TL806246
AB0018841
AX8013539
DB-029053
ST2411690
TC-062771
4CH-007400
FT-0642929
68A793
M-1199
MFCD00227537 (95+%)
A804422
C-19675
I14-2654
J-004250
5-Amino-3-cyano-1-(2,6-dichloro-4-trifluoromethylp
5-amino-1-(2,6-dichloro-4-trifluoromethylphenyl)-3-cyanopyrazole
5-amino-3-cyano-1-(2,6-dichlor-4-trifluoromethylphenyl)pyrazole
5-amino-3-cyano-1-(2,6-dichloro-4-trifluoromethylphenyl) pyrazole
5-amino-3-cyano-1-(2.6-dichloro-4-trifluoromethylphenyl)pyrazole
5-Amino-3-cyano-1-[2,6-dichloro-4-(trifluoromethyl)phenyl]pyrazol
5amino-3-cyano-1-(2,6-dichloro-4-trifluoromethylphenyl)pyrazole
5-AMINO-1-(2,6-DICHLORO-4-TRIFLUOROMETHYLPHENYL)-3-CYANO PYRAZOLE
5-amino-1-(2,6-dichloro-4-trifluoromethylphenyl)pyrazole-3-carbonitrile
5-amino-1-[2,6-dichloro-4-(trifluoromethyl)phenyl]-3-pyrazolecarbonitrile
5-AMINO-3-CYANO-(2,6-DICHLORO-4-TRIFLUOROMETHYL-PHENYL)PYRAZOLE
1H-Pyrazole-3-carbonitrile, 5-amino-1-[2,6-dichloro-4-(trifluoromethyl)phenyl]-
1H-Pyrazole-3-carbonitrile,5-amino-1-[2,6-dichloro-4-(trifluoromethyl)phenyl]-
5-amino-1-(2,6-dichloro-4-trifluoromethyl-phenyl)-1H-pyrazole-3-carbonitrile
5-azanyl-1-[2,6-bis(chloranyl)-4-(trifluoromethyl)phenyl]pyrazole-3-carbonitrile

> <TPSA>
67.6

> <TotalAidCount>
0

> <TotalFormalCharge>
0

> <XLogP>
3.7

> <database>
PubChem Compound

> <matchingCount>
176

> <primaryID>
3303913

> <queryTranslation>
7628[CompoundID] OR 244[CompoundID] OR 25059[CompoundID] OR 7618[CompoundID] OR 7641[CompoundID] OR 5053[CompoundID] OR 637511[CompoundID] OR 7714[CompoundID] OR 7762[CompoundID] OR 25429[CompoundID]
OR 8842[CompoundID] OR 7794[CompoundID] OR 637566[CompoundID] OR 7843[CompoundID] OR 174[CompoundID] OR 7870[CompoundID] OR 86102[CompoundID] OR 7888[CompoundID] OR 7896[CompoundID] OR 1140[CompoundID
] OR 8042[CompoundID] OR 8058[CompoundID] OR 8078[CompoundID] OR 8087[CompoundID] OR 8117[CompoundID] OR 8133[CompoundID] OR 115224[CompoundID] OR 8175[CompoundID] OR 8194[CompoundID] OR 445639[Compou
ndID] OR 4944[CompoundID] OR 8294[CompoundID] OR 93541[CompoundID] OR 8360[CompoundID] OR 8363[CompoundID] OR 656612[CompoundID] OR 125098[CompoundID] OR 3352[CompoundID] OR 3303913[CompoundID] OR 648
05[CompoundID] OR 31200[CompoundID] OR 1712058[CompoundID] OR 31236[CompoundID] OR 31239[CompoundID] OR 31265[CompoundID] OR 31266[CompoundID] OR 31276[CompoundID] OR 6950273[CompoundID] OR 518659[Com
poundID] OR 14896[CompoundID] OR 14798[CompoundID] OR 14829[CompoundID] OR 14830[CompoundID] OR 8635[CompoundID] OR 23266[CompoundID] OR 4284[CompoundID] OR 8693[CompoundID] OR 22311[CompoundID] OR 87
59[CompoundID] OR 8785[CompoundID] OR 2723810[CompoundID] OR 8857[CompoundID] OR 3893[CompoundID] OR 9936739[CompoundID] OR 516892[CompoundID] OR 5430[CompoundID] OR 9017[CompoundID] OR 15433[Compound
ID] OR 107720[CompoundID] OR 9552081[CompoundID] OR 164825[CompoundID] OR 10275455[CompoundID] OR 16666[CompoundID] OR 9839306[CompoundID] OR 5282227[CompoundID] OR 23676745[CompoundID] OR 32881[Compo
undID] OR 91581[CompoundID] OR 39800[CompoundID] OR 33344[CompoundID] OR 15962220[CompoundID] OR 33528[CompoundID] OR 5365075[CompoundID] OR 62829[CompoundID] OR 162381[CompoundID] OR 517202[CompoundI
D] OR 6433353[CompoundID] OR 2730[CompoundID] OR 5372405[CompoundID] OR 36081[CompoundID] OR 3120[CompoundID] OR 3017[CompoundID] OR 2969[CompoundID] OR 18827[CompoundID] OR 19518[CompoundID] OR 19658
[CompoundID] OR 38283[CompoundID] OR 2758[CompoundID] OR 10112[CompoundID] OR 10340[CompoundID] OR 712[CompoundID] OR 5794[CompoundID] OR 3347[CompoundID] OR 104150[CompoundID] OR 2912[CompoundID] OR
2450[CompoundID] OR 40326[CompoundID] OR 40585[CompoundID] OR 517055[CompoundID] OR 10913[CompoundID] OR 108242[CompoundID] OR 62097[CompoundID] OR 41679[CompoundID] OR 54680676[CompoundID] OR 62118[C
ompoundID] OR 753[CompoundID] OR 1030[CompoundID] OR 23673837[CompoundID] OR 54678504[CompoundID] OR 11442[CompoundID] OR 11463[CompoundID] OR 22230[CompoundID] OR 440917[CompoundID] OR 6054[CompoundI
D] OR 43234[CompoundID] OR 22629[CompoundID] OR 3039[CompoundID] OR 2735067[CompoundID] OR 6144[CompoundID] OR 702[CompoundID] OR 284[CompoundID] OR 176[CompoundID] OR 91688[CompoundID] OR 22947[Compo
undID] OR 47445[CompoundID] OR 1711973[CompoundID] OR 243[CompoundID] OR 10342051[CompoundID] OR 5281875[CompoundID] OR 3776[CompoundID] OR 6224[CompoundID] OR 104926[CompoundID] OR 8755[CompoundID] O
R 338[CompoundID] OR 123622[CompoundID] OR 23954[CompoundID] OR 6334[CompoundID] OR 2537[CompoundID] OR 24261[CompoundID] OR 23665760[CompoundID] OR 83975[CompoundID] OR 784[CompoundID] OR 24437[Compo
undID] OR 5360315[CompoundID] OR 311[CompoundID] OR 6549[CompoundID] OR 107689[CompoundID] OR 17100[CompoundID] OR 24976875[CompoundID] OR 6654[CompoundID] OR 71245[CompoundID] OR 6442842[CompoundID]
OR 62334[CompoundID] OR 54698175[CompoundID] OR 6328154[CompoundID] OR 24762[CompoundID] OR 440950[CompoundID] OR 7017[CompoundID] OR 5281873[CompoundID] OR 323[CompoundID] OR 5281167[CompoundID] OR 7
175[CompoundID] OR 7292[CompoundID] OR 6335613[CompoundID] OR 7456[CompoundID] OR 7462[CompoundID]

> <resultIndex>
26

> <resultRange>
1-176

> <textQuery>
7628,244,25059,7618,7641,5053,637511,7714,7762,25429,8842,7794,637566,7843,174,7870,86102,7888,7896,1140,8042,8058,8078,8087,8117,8133,115224,8175,8194,445639,4944,8294,93541,8360,8363,656612,125098,3
352,3303913,64805,31200,1712058,31236,31239,31265,31266,31276,6950273,518659,14896,14798,14829,14830,8635,23266,4284,8693,22311,8759,8785,2723810,8857,3893,9936739,516892,5430,9017,15433,107720,955208
1,164825,10275455,16666,9839306,5282227,23676745,32881,91581,39800,33344,15962220,33528,5365075,62829,162381,517202,6433353,2730,5372405,36081,3120,3017,2969,18827,19518,19658,38283,2758,10112,10340,7
12,5794,3347,104150,2912,2450,40326,40585,517055,10913,108242,62097,41679,54680676,62118,753,1030,23673837,54678504,11442,11463,22230,440917,6054,43234,22629,3039,2735067,6144,702,284,176,91688,22947,
47445,1711973,243,10342051,5281875,3776,6224,104926,8755,338,123622,23954,6334,2537,24261,23665760,83975,784,24437,5360315,311,6549,107689,17100,24976875,6654,71245,6442842,62334,54698175,6328154,2476
2,440950,7017,5281873,323,5281167,7175,7292,6335613,7456,7462

$$$$
2,735,067
  SciTegic10191915303D

 37 36  0  0  0  0            999 V2000
    6.7480    2.3300    4.1040 O   0  5
    6.8210    1.2990    2.2250 O   0  0
   -0.1310   -0.3030   -0.5270 C   0  0
    0.4590    0.4020    0.6930 C   0  0
   -1.6600   -0.3030   -0.5270 C   0  0
    1.9890    0.4020    0.6930 C   0  0
   -2.2500   -1.0080   -1.7480 C   0  0
    2.5780    1.1090    1.9140 C   0  0
   -3.7790   -1.0080   -1.7480 C   0  0
    4.1080    1.1090    1.9140 C   0  0
   -4.3690   -1.7150   -2.9710 C   0  0
    4.6980    1.8160    3.1350 C   0  0
   -5.8960   -1.7150   -2.9710 C   0  0
    6.2030    1.8030    3.1350 C   0  0
    0.2560    0.1350   -1.4490 H   0  0
    0.2560   -1.3200   -0.6090 H   0  0
    0.0740   -0.0350    1.6150 H   0  0
    0.0740    1.4200    0.7750 H   0  0
   -2.0450   -0.7400    0.3930 H   0  0
   -2.0450    0.7130   -0.4470 H   0  0
    2.3730    0.8400   -0.2270 H   0  0
    2.3730   -0.6130    0.6130 H   0  0
   -1.8630   -0.5720   -2.6700 H   0  0
   -1.8630   -2.0250   -1.8300 H   0  0
    2.1940    0.6720    2.8360 H   0  0
    2.1940    2.1250    1.9960 H   0  0
   -4.1640   -1.4450   -0.8280 H   0  0
   -4.1640    0.0080   -1.6680 H   0  0
    4.4920    1.5450    0.9920 H   0  0
    4.4920    0.0920    1.8360 H   0  0
   -3.9820   -1.2770   -3.8910 H   0  0
   -3.9820   -2.7310   -3.0510 H   0  0
    4.3230    1.2770    4.0060 H   0  0
    4.3360    2.8420    3.1970 H   0  0
   -6.2830   -2.2170   -3.8570 H   0  0
   -6.2830   -2.2170   -2.0820 H   0  0
   -6.2830   -0.6950   -2.9710 H   0  0
  1 14  1  0
  2 14  2  0
  3  4  1  0
  3  5  1  0
  4  6  1  0
  5  7  1  0
  6  8  1  0
  7  9  1  0
  8 10  1  0
  9 11  1  0
 10 12  1  0
 11 13  1  0
 12 14  1  0
  3 15  1  0
  3 16  1  0
  4 17  1  0
  4 18  1  0
  5 19  1  0
  5 20  1  0
  6 21  1  0
  6 22  1  0
  7 23  1  0
  7 24  1  0
  8 25  1  0
  8 26  1  0
  9 27  1  0
  9 28  1  0
 10 29  1  0
 10 30  1  0
 11 31  1  0
 11 32  1  0
 12 33  1  0
 12 34  1  0
 13 35  1  0
 13 36  1  0
 13 37  1  0
M  CHG  1   1  -1
M  END
> <Name>
2,735,067

> <OBJECTID>
9223372152822235147

> <ActiveAidCount>
1

> <AtomChiralCount>
0

> <AtomChiralDefCount>
0

> <AtomChiralUndefCount>
0

> <BondChiralCount>
0

> <BondChiralDefCount>
0

> <BondChiralUndefCount>
0

> <CID>
2735067

> <CanonicalSmiles>
CCCCCCCCCCCC(=O)[O-].[Na+]

> <Complexity>
138

> <CovalentUnitCount>
2

> <CreateDate>
2005/07/19 00:00

> <HeavyAtomCount>
15

> <HydrogenBondAcceptorCount>
2

> <HydrogenBondDonorCount>
0

> <IUPACName>
sodium;dodecanoate

> <InChI>
InChI=1S/C12H24O2.Na/c1-2-3-4-5-6-7-8-9-10-11-12(13)14;/h2-11H2,1H3,(H,13,14);/q;+1/p-1

> <InChIKey>
BTURAGWYSMTVOW-UHFFFAOYSA-M

> <IsomericSmiles>
CCCCCCCCCCCC(=O)[O-].[Na+]

> <IsotopeAtomCount>
0

> <MeSHHeading>
lauric acid

> <MeSHTerm>
lauric acid, calcium salt
lauric acid
lauric acid, nickel(2+) salt
lauric acid, magnesium salt
lauric acid, ammonium salt
dodecanoic acid
potassium laurate
sodium laurate
lauric acid, barium and cadmium salt (4:1:1)
lauric acid, lithium salt
lauric acid, sodium salt
sodium dodecanoate
lauric acid, potassium salt

> <MolecularFormula>
C12H23NaO2

> <MolecularWeight>
222.3

> <RotatableBondCount>
10

> <Smiles>
[Na+].[O-]C(CCCCCCCCCCC)=O

> <SourceCategory>
Chemical Vendors
Legacy Depositors
Research and Development
Curation Efforts
Governmental Organizations
Subscription Services
Journal Publishers

> <Synonym>
Sodium dodecanoate
SODIUM LAURATE
629-25-4
Lauric acid sodium salt
Dodecanoic acid, sodium salt
Lauric acid, sodium salt
Lauran sodny [Czech]
Caswell No. 778A
UNII-K146MR5EXO
Dodecanoic acid sodium salt
EINECS 211-082-4
EPA Pesticide Chemical Code 079026
K146MR5EXO
Dodecanoic acid, sodium salt (1:1)
MFCD00041754
Lauric acid, sodium salt, 98%
Lauran sodny
OA(1)ethEa AAENI
ACMC-209nae
AC1MC2IN
SCHEMBL25924
n-dodecanoic acid sodium salt
KSC490S9R
C12H23O2.Na
CHEMBL556792
DTXSID9044453
CTK3J0998
BTURAGWYSMTVOW-UHFFFAOYSA-M
CHEBI:131839
KS-000010YQ
E(R) paragraph signthornIeEa AAENI
6036AF
ANW-34452
AKOS016373636
MCULE-7873290711
RTR-021657
AN-22057
LS-87644
TL8004321
FT-0627720
L0016
ST51037324
UNII-6H91L1NXTW component BTURAGWYSMTVOW-UHFFFAOYSA-M
UNII-R1TQH25F4I component BTURAGWYSMTVOW-UHFFFAOYSA-M

> <TPSA>
40.1

> <TotalAidCount>
2

> <TotalFormalCharge>
0

> <database>
PubChem Compound

> <matchingCount>
176

> <primaryID>
2735067

> <queryTranslation>
7628[CompoundID] OR 244[CompoundID] OR 25059[CompoundID] OR 7618[CompoundID] OR 7641[CompoundID] OR 5053[CompoundID] OR 637511[CompoundID] OR 7714[CompoundID] OR 7762[CompoundID] OR 25429[CompoundID]
OR 8842[CompoundID] OR 7794[CompoundID] OR 637566[CompoundID] OR 7843[CompoundID] OR 174[CompoundID] OR 7870[CompoundID] OR 86102[CompoundID] OR 7888[CompoundID] OR 7896[CompoundID] OR 1140[CompoundID
] OR 8042[CompoundID] OR 8058[CompoundID] OR 8078[CompoundID] OR 8087[CompoundID] OR 8117[CompoundID] OR 8133[CompoundID] OR 115224[CompoundID] OR 8175[CompoundID] OR 8194[CompoundID] OR 445639[Compou
ndID] OR 4944[CompoundID] OR 8294[CompoundID] OR 93541[CompoundID] OR 8360[CompoundID] OR 8363[CompoundID] OR 656612[CompoundID] OR 125098[CompoundID] OR 3352[CompoundID] OR 3303913[CompoundID] OR 648
05[CompoundID] OR 31200[CompoundID] OR 1712058[CompoundID] OR 31236[CompoundID] OR 31239[CompoundID] OR 31265[CompoundID] OR 31266[CompoundID] OR 31276[CompoundID] OR 6950273[CompoundID] OR 518659[Com
poundID] OR 14896[CompoundID] OR 14798[CompoundID] OR 14829[CompoundID] OR 14830[CompoundID] OR 8635[CompoundID] OR 23266[CompoundID] OR 4284[CompoundID] OR 8693[CompoundID] OR 22311[CompoundID] OR 87
59[CompoundID] OR 8785[CompoundID] OR 2723810[CompoundID] OR 8857[CompoundID] OR 3893[CompoundID] OR 9936739[CompoundID] OR 516892[CompoundID] OR 5430[CompoundID] OR 9017[CompoundID] OR 15433[Compound
ID] OR 107720[CompoundID] OR 9552081[CompoundID] OR 164825[CompoundID] OR 10275455[CompoundID] OR 16666[CompoundID] OR 9839306[CompoundID] OR 5282227[CompoundID] OR 23676745[CompoundID] OR 32881[Compo
undID] OR 91581[CompoundID] OR 39800[CompoundID] OR 33344[CompoundID] OR 15962220[CompoundID] OR 33528[CompoundID] OR 5365075[CompoundID] OR 62829[CompoundID] OR 162381[CompoundID] OR 517202[CompoundI
D] OR 6433353[CompoundID] OR 2730[CompoundID] OR 5372405[CompoundID] OR 36081[CompoundID] OR 3120[CompoundID] OR 3017[CompoundID] OR 2969[CompoundID] OR 18827[CompoundID] OR 19518[CompoundID] OR 19658
[CompoundID] OR 38283[CompoundID] OR 2758[CompoundID] OR 10112[CompoundID] OR 10340[CompoundID] OR 712[CompoundID] OR 5794[CompoundID] OR 3347[CompoundID] OR 104150[CompoundID] OR 2912[CompoundID] OR
2450[CompoundID] OR 40326[CompoundID] OR 40585[CompoundID] OR 517055[CompoundID] OR 10913[CompoundID] OR 108242[CompoundID] OR 62097[CompoundID] OR 41679[CompoundID] OR 54680676[CompoundID] OR 62118[C
ompoundID] OR 753[CompoundID] OR 1030[CompoundID] OR 23673837[CompoundID] OR 54678504[CompoundID] OR 11442[CompoundID] OR 11463[CompoundID] OR 22230[CompoundID] OR 440917[CompoundID] OR 6054[CompoundI
D] OR 43234[CompoundID] OR 22629[CompoundID] OR 3039[CompoundID] OR 2735067[CompoundID] OR 6144[CompoundID] OR 702[CompoundID] OR 284[CompoundID] OR 176[CompoundID] OR 91688[CompoundID] OR 22947[Compo
undID] OR 47445[CompoundID] OR 1711973[CompoundID] OR 243[CompoundID] OR 10342051[CompoundID] OR 5281875[CompoundID] OR 3776[CompoundID] OR 6224[CompoundID] OR 104926[CompoundID] OR 8755[CompoundID] O
R 338[CompoundID] OR 123622[CompoundID] OR 23954[CompoundID] OR 6334[CompoundID] OR 2537[CompoundID] OR 24261[CompoundID] OR 23665760[CompoundID] OR 83975[CompoundID] OR 784[CompoundID] OR 24437[Compo
undID] OR 5360315[CompoundID] OR 311[CompoundID] OR 6549[CompoundID] OR 107689[CompoundID] OR 17100[CompoundID] OR 24976875[CompoundID] OR 6654[CompoundID] OR 71245[CompoundID] OR 6442842[CompoundID]
OR 62334[CompoundID] OR 54698175[CompoundID] OR 6328154[CompoundID] OR 24762[CompoundID] OR 440950[CompoundID] OR 7017[CompoundID] OR 5281873[CompoundID] OR 323[CompoundID] OR 5281167[CompoundID] OR 7
175[CompoundID] OR 7292[CompoundID] OR 6335613[CompoundID] OR 7456[CompoundID] OR 7462[CompoundID]

> <resultIndex>
27

> <resultRange>
1-176

> <textQuery>
7628,244,25059,7618,7641,5053,637511,7714,7762,25429,8842,7794,637566,7843,174,7870,86102,7888,7896,1140,8042,8058,8078,8087,8117,8133,115224,8175,8194,445639,4944,8294,93541,8360,8363,656612,125098,3
352,3303913,64805,31200,1712058,31236,31239,31265,31266,31276,6950273,518659,14896,14798,14829,14830,8635,23266,4284,8693,22311,8759,8785,2723810,8857,3893,9936739,516892,5430,9017,15433,107720,955208
1,164825,10275455,16666,9839306,5282227,23676745,32881,91581,39800,33344,15962220,33528,5365075,62829,162381,517202,6433353,2730,5372405,36081,3120,3017,2969,18827,19518,19658,38283,2758,10112,10340,7
12,5794,3347,104150,2912,2450,40326,40585,517055,10913,108242,62097,41679,54680676,62118,753,1030,23673837,54678504,11442,11463,22230,440917,6054,43234,22629,3039,2735067,6144,702,284,176,91688,22947,
47445,1711973,243,10342051,5281875,3776,6224,104926,8755,338,123622,23954,6334,2537,24261,23665760,83975,784,24437,5360315,311,6549,107689,17100,24976875,6654,71245,6442842,62334,54698175,6328154,2476
2,440950,7017,5281873,323,5281167,7175,7292,6335613,7456,7462

$$$$
2,723,810
  SciTegic10191915303D

  4  3  0  0  0  0            999 V2000
    0.0000    0.0240    0.0000 C   0  0
   -0.6700   -1.0080    0.0000 O   0  5
    1.2090    0.0240    0.0000 O   0  0
   -0.5380    0.9600    0.0000 H   0  0
  1  2  1  0
  1  3  2  0
  1  4  1  0
M  CHG  1   2  -1
M  END
> <Name>
2,723,810

> <OBJECTID>
9223372157117202443

> <ActiveAidCount>
2

> <AtomChiralCount>
0

> <AtomChiralDefCount>
0

> <AtomChiralUndefCount>
0

> <BondChiralCount>
0

> <BondChiralDefCount>
0

> <BondChiralUndefCount>
0

> <CID>
2723810

> <CanonicalSmiles>
C(=O)[O-].[Na+]

> <Complexity>
13.5

> <CovalentUnitCount>
2

> <CreateDate>
2005/07/19 00:00

> <HeavyAtomCount>
4

> <HydrogenBondAcceptorCount>
2

> <HydrogenBondDonorCount>
0

> <IUPACName>
sodium;formate

> <InChI>
InChI=1S/CH2O2.Na/c2-1-3;/h1H,(H,2,3);/q;+1/p-1

> <InChIKey>
HLBBKKJFGFRGMU-UHFFFAOYSA-M

> <IsomericSmiles>
C(=O)[O-].[Na+]

> <IsotopeAtomCount>
0

> <MeSHHeading>
formic acid

> <MeSHTerm>
aluminum formate
formic acid, copper (+2) salt
formic acid, strontium salt
formic acid, ammonium (4:1) salt
formic acid, lead (+2) salt
nickel formate dihydrate
calcium formate
cobalt(II) formate dihydrate
formic acid, calcium salt
formic acid, lead salt
formic acid, cromium (+3), sodium (4:1:1) salt
formic acid, magnesium salt
formic acid, cobalt (+2) salt
formic acid, copper, ammonium salt
formic acid, aluminum salt
formic acid, cadmium salt
lead formate
cobaltous formate
formic acid, copper, nickel salt
formic acid, sodium salt
potassium formate
strontium formate
formate
formic acid, ammonium (2:1) salt
ammonium tetraformate
formic acid, ammonium salt
formic acid, nickel (+2) salt
formic acid, sodium salt, 14C-labeled
formic acid
sodium formate
zinc formate
chromic formate
formic acid, cesium salt
formic acid, cromium (+3) salt
formic acid, rubidium salt
formic acid, 14C-labeled
formic acid, potassium salt
lithium formate
formic acid, lithium salt
formic acid, sodium salt, 13C-labeled
magnesium formate
formic acid, nickel salt
ammonium formate
nickel formate
formic acid, thallium (+1) salt
formic acid, copper salt
methanoic acid
cupric formate
formic acid, zinc salt

> <MolecularFormula>
CHNaO2

> <MolecularWeight>
68.007

> <RotatableBondCount>
0

> <Smiles>
C(=O)[O-].[Na+]

> <SourceCategory>
Chemical Vendors
Legacy Depositors
Research and Development
Curation Efforts
Governmental Organizations
Subscription Services
Journal Publishers

> <Synonym>
SODIUM FORMATE
141-53-7
Formic acid, sodium salt
Formic acid sodium salt
Salachlor
FORMIC ACID, NA SALT
Sodium formate, refined
sodium formiate
Mravencan sodny [Czech]
Formic acid, sodium salt (1:1)
MFCD00013101
CCRIS 1037
HSDB 744
UNII-387AD98770
EINECS 205-488-0
NSC 77457
CHEBI:62965
potassium formira
Sodium formate, 99%
387AD98770
Sodium formate, ACS reagent
Mravencan sodny
CHEMBL183491
E237
sodium formira
sodium-formate
sodium carbanate
Sodium methanoate
HCOONa
qCaPSCPRVd@
OIEa AAENI
CHNaO2
HCO2Na
AC1MC3NO
Sodium formate, ACS min
ACMC-1C1QP
CHNA02
Sodium formate, ACS grade
EC 205-488-0
SODIUM FORMATE, ACS
KSC178M9D
DTXSID2027090
CTK0H8691
HLBBKKJFGFRGMU-UHFFFAOYSA-M
KS-00000H2H
OHS21250
ANW-20628
AKOS015902050
AKOS015960483
RL01734
RTR-005338
TRA0066642
AK550081
AN-43884
LS-69701
SC-80003
TR-005338
FT-0689260
S0807
SODIUM FORMATE WT PWD/ACS GRD 100G
I14-13427

> <TPSA>
40.1

> <TotalAidCount>
20

> <TotalFormalCharge>
0

> <database>
PubChem Compound

> <matchingCount>
176

> <primaryID>
2723810

> <queryTranslation>
7628[CompoundID] OR 244[CompoundID] OR 25059[CompoundID] OR 7618[CompoundID] OR 7641[CompoundID] OR 5053[CompoundID] OR 637511[CompoundID] OR 7714[CompoundID] OR 7762[CompoundID] OR 25429[CompoundID]
OR 8842[CompoundID] OR 7794[CompoundID] OR 637566[CompoundID] OR 7843[CompoundID] OR 174[CompoundID] OR 7870[CompoundID] OR 86102[CompoundID] OR 7888[CompoundID] OR 7896[CompoundID] OR 1140[CompoundID
] OR 8042[CompoundID] OR 8058[CompoundID] OR 8078[CompoundID] OR 8087[CompoundID] OR 8117[CompoundID] OR 8133[CompoundID] OR 115224[CompoundID] OR 8175[CompoundID] OR 8194[CompoundID] OR 445639[Compou
ndID] OR 4944[CompoundID] OR 8294[CompoundID] OR 93541[CompoundID] OR 8360[CompoundID] OR 8363[CompoundID] OR 656612[CompoundID] OR 125098[CompoundID] OR 3352[CompoundID] OR 3303913[CompoundID] OR 648
05[CompoundID] OR 31200[CompoundID] OR 1712058[CompoundID] OR 31236[CompoundID] OR 31239[CompoundID] OR 31265[CompoundID] OR 31266[CompoundID] OR 31276[CompoundID] OR 6950273[CompoundID] OR 518659[Com
poundID] OR 14896[CompoundID] OR 14798[CompoundID] OR 14829[CompoundID] OR 14830[CompoundID] OR 8635[CompoundID] OR 23266[CompoundID] OR 4284[CompoundID] OR 8693[CompoundID] OR 22311[CompoundID] OR 87
59[CompoundID] OR 8785[CompoundID] OR 2723810[CompoundID] OR 8857[CompoundID] OR 3893[CompoundID] OR 9936739[CompoundID] OR 516892[CompoundID] OR 5430[CompoundID] OR 9017[CompoundID] OR 15433[Compound
ID] OR 107720[CompoundID] OR 9552081[CompoundID] OR 164825[CompoundID] OR 10275455[CompoundID] OR 16666[CompoundID] OR 9839306[CompoundID] OR 5282227[CompoundID] OR 23676745[CompoundID] OR 32881[Compo
undID] OR 91581[CompoundID] OR 39800[CompoundID] OR 33344[CompoundID] OR 15962220[CompoundID] OR 33528[CompoundID] OR 5365075[CompoundID] OR 62829[CompoundID] OR 162381[CompoundID] OR 517202[CompoundI
D] OR 6433353[CompoundID] OR 2730[CompoundID] OR 5372405[CompoundID] OR 36081[CompoundID] OR 3120[CompoundID] OR 3017[CompoundID] OR 2969[CompoundID] OR 18827[CompoundID] OR 19518[CompoundID] OR 19658
[CompoundID] OR 38283[CompoundID] OR 2758[CompoundID] OR 10112[CompoundID] OR 10340[CompoundID] OR 712[CompoundID] OR 5794[CompoundID] OR 3347[CompoundID] OR 104150[CompoundID] OR 2912[CompoundID] OR
2450[CompoundID] OR 40326[CompoundID] OR 40585[CompoundID] OR 517055[CompoundID] OR 10913[CompoundID] OR 108242[CompoundID] OR 62097[CompoundID] OR 41679[CompoundID] OR 54680676[CompoundID] OR 62118[C
ompoundID] OR 753[CompoundID] OR 1030[CompoundID] OR 23673837[CompoundID] OR 54678504[CompoundID] OR 11442[CompoundID] OR 11463[CompoundID] OR 22230[CompoundID] OR 440917[CompoundID] OR 6054[CompoundI
D] OR 43234[CompoundID] OR 22629[CompoundID] OR 3039[CompoundID] OR 2735067[CompoundID] OR 6144[CompoundID] OR 702[CompoundID] OR 284[CompoundID] OR 176[CompoundID] OR 91688[CompoundID] OR 22947[Compo
undID] OR 47445[CompoundID] OR 1711973[CompoundID] OR 243[CompoundID] OR 10342051[CompoundID] OR 5281875[CompoundID] OR 3776[CompoundID] OR 6224[CompoundID] OR 104926[CompoundID] OR 8755[CompoundID] O
R 338[CompoundID] OR 123622[CompoundID] OR 23954[CompoundID] OR 6334[CompoundID] OR 2537[CompoundID] OR 24261[CompoundID] OR 23665760[CompoundID] OR 83975[CompoundID] OR 784[CompoundID] OR 24437[Compo
undID] OR 5360315[CompoundID] OR 311[CompoundID] OR 6549[CompoundID] OR 107689[CompoundID] OR 17100[CompoundID] OR 24976875[CompoundID] OR 6654[CompoundID] OR 71245[CompoundID] OR 6442842[CompoundID]
OR 62334[CompoundID] OR 54698175[CompoundID] OR 6328154[CompoundID] OR 24762[CompoundID] OR 440950[CompoundID] OR 7017[CompoundID] OR 5281873[CompoundID] OR 323[CompoundID] OR 5281167[CompoundID] OR 7
175[CompoundID] OR 7292[CompoundID] OR 6335613[CompoundID] OR 7456[CompoundID] OR 7462[CompoundID]

> <resultIndex>
28

> <resultRange>
1-176

> <textQuery>
7628,244,25059,7618,7641,5053,637511,7714,7762,25429,8842,7794,637566,7843,174,7870,86102,7888,7896,1140,8042,8058,8078,8087,8117,8133,115224,8175,8194,445639,4944,8294,93541,8360,8363,656612,125098,3
352,3303913,64805,31200,1712058,31236,31239,31265,31266,31276,6950273,518659,14896,14798,14829,14830,8635,23266,4284,8693,22311,8759,8785,2723810,8857,3893,9936739,516892,5430,9017,15433,107720,955208
1,164825,10275455,16666,9839306,5282227,23676745,32881,91581,39800,33344,15962220,33528,5365075,62829,162381,517202,6433353,2730,5372405,36081,3120,3017,2969,18827,19518,19658,38283,2758,10112,10340,7
12,5794,3347,104150,2912,2450,40326,40585,517055,10913,108242,62097,41679,54680676,62118,753,1030,23673837,54678504,11442,11463,22230,440917,6054,43234,22629,3039,2735067,6144,702,284,176,91688,22947,
47445,1711973,243,10342051,5281875,3776,6224,104926,8755,338,123622,23954,6334,2537,24261,23665760,83975,784,24437,5360315,311,6549,107689,17100,24976875,6654,71245,6442842,62334,54698175,6328154,2476
2,440950,7017,5281873,323,5281167,7175,7292,6335613,7456,7462

$$$$
1,712,058
  SciTegic10191915303D

 33 33  0  0  0  0            999 V2000
   -0.7190   -1.2440   -2.3770 O   0  0
    2.3200   -1.5410    0.1150 C   0  0
    0.6000   -0.0960   -0.8400 C   0  0
    1.5270   -0.2760    0.1150 C   0  0
    1.6620   -2.7850    0.1150 C   0  0
    3.7270   -1.4920    0.1150 C   0  0
   -0.1970    1.1800   -0.8360 C   0  0
    2.4100   -3.9770    0.1150 C   0  0
    4.4730   -2.6840    0.1150 C   0  0
    0.3690   -1.1230   -1.8640 C   0  0
    3.8150   -3.9260    0.1150 C   0  0
   -1.4260    1.1000    0.0700 C   0  0
   -2.2400    2.3920    0.0800 C   0  0
   -3.4710    2.3090    0.9840 C   0  0
   -4.2850    3.6030    0.9920 C   0  0
    1.7520    0.4320    0.8980 H   0  0
    0.5840   -2.8340    0.1150 H   0  0
    4.2400   -0.5410    0.1150 H   0  0
    0.4100    1.9960   -0.4460 H   0  0
   -0.4880    1.4390   -1.8540 H   0  0
    1.9040   -4.9300    0.1150 H   0  0
    5.5510   -2.6450    0.1150 H   0  0
    1.1780   -1.7760   -2.1590 H   0  0
    4.3890   -4.8400    0.1150 H   0  0
   -2.0530    0.2500   -0.2050 H   0  0
   -1.1390    0.8180    1.0840 H   0  0
   -1.6130    3.2400    0.3590 H   0  0
   -2.5250    2.6760   -0.9340 H   0  0
   -4.0960    1.4610    0.7050 H   0  0
   -3.1860    2.0270    1.9980 H   0  0
   -5.1580    3.5060    1.6380 H   0  0
   -3.6780    4.4390    1.3400 H   0  0
   -4.6390    3.8420   -0.0120 H   0  0
  1 10  2  0
  2  4  1  0
  2  5  2  0
  2  6  1  0
  3  4  2  0
  3  7  1  0
  3 10  1  0
  5  8  1  0
  6  9  2  0
  7 12  1  0
  8 11  2  0
  9 11  1  0
 12 13  1  0
 13 14  1  0
 14 15  1  0
  4 16  1  0
  5 17  1  0
  6 18  1  0
  7 19  1  0
  7 20  1  0
  8 21  1  0
  9 22  1  0
 10 23  1  0
 11 24  1  0
 12 25  1  0
 12 26  1  0
 13 27  1  0
 13 28  1  0
 14 29  1  0
 14 30  1  0
 15 31  1  0
 15 32  1  0
 15 33  1  0
M  END
> <Name>
1,712,058

> <OBJECTID>
9223372161412169739

> <ActiveAidCount>
0

> <AtomChiralCount>
0

> <AtomChiralDefCount>
0

> <AtomChiralUndefCount>
0

> <BondChiralCount>
1

> <BondChiralDefCount>
1

> <BondChiralUndefCount>
0

> <CID>
1712058

> <CanonicalSmiles>
CCCCCC(=CC1=CC=CC=C1)C=O

> <Complexity>
199

> <CovalentUnitCount>
1

> <CreateDate>
2005/03/27 00:00

> <HeavyAtomCount>
15

> <HydrogenBondAcceptorCount>
1

> <HydrogenBondDonorCount>
0

> <IUPACName>
(2Z)-2-benzylideneheptanal

> <InChI>
InChI=1S/C14H18O/c1-2-3-5-10-14(12-15)11-13-8-6-4-7-9-13/h4,6-9,11-12H,2-3,5,10H2,1H3/b14-11-

> <InChIKey>
HMKKIXGYKWDQSV-KAMYIIQDSA-N

> <IsomericSmiles>
CCCCC/C(=C/C1=CC=CC=C1)/C=O

> <IsotopeAtomCount>
0

> <MeSHHeading>
2-pentylcinnamaldehyde

> <MeSHTerm>
alpha-amylcinnamic aldehyde
2-pentylcinnamaldehyde

> <MolecularFormula>
C14H18O

> <MolecularWeight>
202.29

> <RotatableBondCount>
6

> <Smiles>
O=C\C(\CCCCC)=C/c1ccccc1

> <SourceCategory>
Legacy Depositors
Chemical Vendors
Curation Efforts
Governmental Organizations
NIH Initiatives
Subscription Services
Journal Publishers
Research and Development

> <Synonym>
2-Benzylideneheptanal
Jasminaldehyde
Jasminal
Flomine
Amylcinnamal
Amyl cinnamal
Jasmine aldehyde
Pentylcinnamaldehyde
alpha-Amyl cinnamaldehyde
Amylcinnamic acid aldehyde
2-(Phenylmethylene)heptanal
Amyl cinnamic aldehyde
alpha-Amylcinnamicaldehyde
Amylcinnamaldehyde
Heptanal, 2-benzylidene-
alpha-Amylcinnamaldehyde
(2Z)-2-benzylideneheptanal
alpha-Amyl-beta-phenylacrolein
alpha-Pentyl-beta-phenylacrolein
122-40-7
NSC 6649
Heptanal, 2-(phenylmethylene)-
2-(Phenylmethylene)-heptanal
Amylcinnamic aldehyde
FEMA No. 2061
Heptanal, 2-(phenylmethylene)
CCRIS 1342
alpha-Amylcinnamaldehyde (natural)
CINNAMALDEHYDE, alpha-PENTYL-
EINECS 204-541-5
EINECS 215-565-0
BRN 0511292
UNII-06T2G22P2C
AI3-00658
2-pentyl-3-phenyl-2-propenal
CHEBI:32318
Cinnamaldehyde, .alpha.-pentyl-
06T2G22P2C
2-Propenal, 3-phenyl-, monopentyl deriv
alpha-Pentylcinnamaldehyde
a-amylcinnamaldehyde
.alpha.-Amylcinnamaldehyde
alpha-Amylcinnamic aldehyde
.alpha.-Pentylcinnamaldehyde
.alpha.-Amylcinnamic aldehyde
jasminaldehyd
.alpha.-Amyl-.beta.-phenylacrolein
.alpha.-Amyl cinnamic aldehyde
HSDB 8003
cis-Jasminaldehyde
NCGC00166216-01
1331-92-6
2-benzylidene-heptanal
AC1LVUI1
a-Pentyl-b-phenylacrolein
alpha-Pentyl-Cinnamaldehyde
a-Pentylcinnamaldehyde, 8CI
.alpha.-n-Amylcinnamaldehyde
Alpha Amyl Cinnamic Aldehyde
alpha-n-amylcinnamic aldehyde
2-07-00-00310 (Beilstein Handbook Reference)
alpha-Amylcinnamaldehyde, cis-
Cinnamaldehyde, .alpha.-amyl-
.alpha.-n-Amylcinnamic aldehyde
alpha-Amylcinnamaldehyde, (Z)-
CHEMBL1611291
FEMA 2061
HMKKIXGYKWDQSV-KAMYIIQDSA-N
(2Z)-2-(phenylmethylene)heptanal
2-(Phenylmethylene)heptanal, 9CI
2-Pentyl-3-phenyl-2-propenal #
alpha-Amyl-alpha-amylcinnamaldehyde
ZINC1874357
(2Z)-2-(phenylmethylidene)heptanal
(Z)-2-Pentyl-3-phenylacrylaldehyde
STK208488
NATURAL AMYL CINNAMIC ALDEHYDE
(2Z)-2-Pentyl-3-phenyl-2-propenal
AKOS000120887
LS-2557
NCGC00166216-02
AJ-32214
AK114526
CJ-07288
CJ-30711
Heptanal, 2-(phenylmethylene)-, (2Z)-
AX8017818
C12288
A804888
I14-7338
UNII-WC51CA3418 component HMKKIXGYKWDQSV-KAMYIIQDSA-N
101365-33-7

> <TPSA>
17.1

> <TotalAidCount>
34

> <TotalFormalCharge>
0

> <XLogP>
4.2

> <database>
PubChem Compound

> <matchingCount>
176

> <primaryID>
1712058

> <queryTranslation>
7628[CompoundID] OR 244[CompoundID] OR 25059[CompoundID] OR 7618[CompoundID] OR 7641[CompoundID] OR 5053[CompoundID] OR 637511[CompoundID] OR 7714[CompoundID] OR 7762[CompoundID] OR 25429[CompoundID]
OR 8842[CompoundID] OR 7794[CompoundID] OR 637566[CompoundID] OR 7843[CompoundID] OR 174[CompoundID] OR 7870[CompoundID] OR 86102[CompoundID] OR 7888[CompoundID] OR 7896[CompoundID] OR 1140[CompoundID
] OR 8042[CompoundID] OR 8058[CompoundID] OR 8078[CompoundID] OR 8087[CompoundID] OR 8117[CompoundID] OR 8133[CompoundID] OR 115224[CompoundID] OR 8175[CompoundID] OR 8194[CompoundID] OR 445639[Compou
ndID] OR 4944[CompoundID] OR 8294[CompoundID] OR 93541[CompoundID] OR 8360[CompoundID] OR 8363[CompoundID] OR 656612[CompoundID] OR 125098[CompoundID] OR 3352[CompoundID] OR 3303913[CompoundID] OR 648
05[CompoundID] OR 31200[CompoundID] OR 1712058[CompoundID] OR 31236[CompoundID] OR 31239[CompoundID] OR 31265[CompoundID] OR 31266[CompoundID] OR 31276[CompoundID] OR 6950273[CompoundID] OR 518659[Com
poundID] OR 14896[CompoundID] OR 14798[CompoundID] OR 14829[CompoundID] OR 14830[CompoundID] OR 8635[CompoundID] OR 23266[CompoundID] OR 4284[CompoundID] OR 8693[CompoundID] OR 22311[CompoundID] OR 87
59[CompoundID] OR 8785[CompoundID] OR 2723810[CompoundID] OR 8857[CompoundID] OR 3893[CompoundID] OR 9936739[CompoundID] OR 516892[CompoundID] OR 5430[CompoundID] OR 9017[CompoundID] OR 15433[Compound
ID] OR 107720[CompoundID] OR 9552081[CompoundID] OR 164825[CompoundID] OR 10275455[CompoundID] OR 16666[CompoundID] OR 9839306[CompoundID] OR 5282227[CompoundID] OR 23676745[CompoundID] OR 32881[Compo
undID] OR 91581[CompoundID] OR 39800[CompoundID] OR 33344[CompoundID] OR 15962220[CompoundID] OR 33528[CompoundID] OR 5365075[CompoundID] OR 62829[CompoundID] OR 162381[CompoundID] OR 517202[CompoundI
D] OR 6433353[CompoundID] OR 2730[CompoundID] OR 5372405[CompoundID] OR 36081[CompoundID] OR 3120[CompoundID] OR 3017[CompoundID] OR 2969[CompoundID] OR 18827[CompoundID] OR 19518[CompoundID] OR 19658
[CompoundID] OR 38283[CompoundID] OR 2758[CompoundID] OR 10112[CompoundID] OR 10340[CompoundID] OR 712[CompoundID] OR 5794[CompoundID] OR 3347[CompoundID] OR 104150[CompoundID] OR 2912[CompoundID] OR
2450[CompoundID] OR 40326[CompoundID] OR 40585[CompoundID] OR 517055[CompoundID] OR 10913[CompoundID] OR 108242[CompoundID] OR 62097[CompoundID] OR 41679[CompoundID] OR 54680676[CompoundID] OR 62118[C
ompoundID] OR 753[CompoundID] OR 1030[CompoundID] OR 23673837[CompoundID] OR 54678504[CompoundID] OR 11442[CompoundID] OR 11463[CompoundID] OR 22230[CompoundID] OR 440917[CompoundID] OR 6054[CompoundI
D] OR 43234[CompoundID] OR 22629[CompoundID] OR 3039[CompoundID] OR 2735067[CompoundID] OR 6144[CompoundID] OR 702[CompoundID] OR 284[CompoundID] OR 176[CompoundID] OR 91688[CompoundID] OR 22947[Compo
undID] OR 47445[CompoundID] OR 1711973[CompoundID] OR 243[CompoundID] OR 10342051[CompoundID] OR 5281875[CompoundID] OR 3776[CompoundID] OR 6224[CompoundID] OR 104926[CompoundID] OR 8755[CompoundID] O
R 338[CompoundID] OR 123622[CompoundID] OR 23954[CompoundID] OR 6334[CompoundID] OR 2537[CompoundID] OR 24261[CompoundID] OR 23665760[CompoundID] OR 83975[CompoundID] OR 784[CompoundID] OR 24437[Compo
undID] OR 5360315[CompoundID] OR 311[CompoundID] OR 6549[CompoundID] OR 107689[CompoundID] OR 17100[CompoundID] OR 24976875[CompoundID] OR 6654[CompoundID] OR 71245[CompoundID] OR 6442842[CompoundID]
OR 62334[CompoundID] OR 54698175[CompoundID] OR 6328154[CompoundID] OR 24762[CompoundID] OR 440950[CompoundID] OR 7017[CompoundID] OR 5281873[CompoundID] OR 323[CompoundID] OR 5281167[CompoundID] OR 7
175[CompoundID] OR 7292[CompoundID] OR 6335613[CompoundID] OR 7456[CompoundID] OR 7462[CompoundID]

> <resultIndex>
29

> <resultRange>
1-176

> <textQuery>
7628,244,25059,7618,7641,5053,637511,7714,7762,25429,8842,7794,637566,7843,174,7870,86102,7888,7896,1140,8042,8058,8078,8087,8117,8133,115224,8175,8194,445639,4944,8294,93541,8360,8363,656612,125098,3
352,3303913,64805,31200,1712058,31236,31239,31265,31266,31276,6950273,518659,14896,14798,14829,14830,8635,23266,4284,8693,22311,8759,8785,2723810,8857,3893,9936739,516892,5430,9017,15433,107720,955208
1,164825,10275455,16666,9839306,5282227,23676745,32881,91581,39800,33344,15962220,33528,5365075,62829,162381,517202,6433353,2730,5372405,36081,3120,3017,2969,18827,19518,19658,38283,2758,10112,10340,7
12,5794,3347,104150,2912,2450,40326,40585,517055,10913,108242,62097,41679,54680676,62118,753,1030,23673837,54678504,11442,11463,22230,440917,6054,43234,22629,3039,2735067,6144,702,284,176,91688,22947,
47445,1711973,243,10342051,5281875,3776,6224,104926,8755,338,123622,23954,6334,2537,24261,23665760,83975,784,24437,5360315,311,6549,107689,17100,24976875,6654,71245,6442842,62334,54698175,6328154,2476
2,440950,7017,5281873,323,5281167,7175,7292,6335613,7456,7462

$$$$
1,711,973
  SciTegic10191915303D

 56 55  0  0  1  0            999 V2000
   -3.4280   -3.6490   -2.5370 O   0  0
   -3.1130   -2.3970   -3.1070 C   0  0
    3.9180    1.5210    2.4770 C   0  0
    2.4510    1.5210    2.4770 C   0  0
    1.7660    2.4000    1.7250 C   0  0
   -0.3870    1.2440    1.7250 C   0  0
    0.2990    2.4000    1.7250 C   0  0
    4.4960    1.6390    3.6680 O   0  0
   -3.1330   -1.4550   -0.7440 C   0  0
   -1.8910    1.3010    1.7250 C   0  0
   -2.2970   -1.7500   -1.9900 C   0  0
   -2.4960    0.6970    0.4570 C   0  0  2  0  0  0
   -2.3130   -0.8180    0.3790 C   0  0
    4.5310    1.4200    1.4380 O   0  0
    5.8810    1.3220    3.6310 C   0  0
    2.5390    3.3830    0.8850 C   0  0
   -4.4220   -1.6560   -3.3890 C   0  0
   -4.1350   -4.4960   -3.4140 C   0  0
    6.0640   -0.1090    3.1250 C   0  0
    6.6150    2.3520    2.7720 C   0  0
   -2.0390    1.4140   -0.8140 C   0  0
   -2.2910   -2.6410   -4.3730 C   0  0
    1.9880    0.7790    3.1100 H   0  0
    0.2190    0.3500    1.7250 H   0  0
   -0.1640    3.3750    1.7250 H   0  0
   -3.6330   -2.3570   -0.3920 H   0  0
   -3.9920   -0.8320   -0.9940 H   0  0
   -2.2830    0.7130    2.5550 H   0  0
   -2.2230    2.3300    1.8600 H   0  0
   -1.8050   -0.8440   -2.3460 H   0  0
   -1.4340   -2.3650   -1.7380 H   0  0
   -3.5840    0.6820    0.5220 H   0  0
   -1.2580   -1.0740    0.2790 H   0  0
   -2.5450   -1.2850    1.3380 H   0  0
    6.1860    1.4040    4.6740 H   0  0
    1.9140    4.1500    0.4300 H   0  0
    3.0590    2.8570    0.0860 H   0  0
    3.2890    3.8830    1.4980 H   0  0
   -4.8630   -1.9550   -4.3400 H   0  0
   -4.2560   -0.5800   -3.4220 H   0  0
   -5.1530   -1.8570   -2.6050 H   0  0
   -4.3990   -5.4020   -2.8710 H   0  0
   -4.9610   -3.9280   -3.8440 H   0  0
   -3.4650   -4.7770   -4.2270 H   0  0
    5.9770   -0.1700    2.0410 H   0  0
    5.3120   -0.7700    3.5590 H   0  0
    7.0450   -0.4920    3.4040 H   0  0
    6.1270    3.3240    2.7950 H   0  0
    6.6560    2.0250    1.7310 H   0  0
    7.6410    2.4820    3.1190 H   0  0
   -0.9880    1.2210   -1.0330 H   0  0
   -2.1680    2.4920   -0.7170 H   0  0
   -2.6230    1.0840   -1.6720 H   0  0
   -2.9120   -2.9830   -5.2010 H   0  0
   -1.5270   -3.3970   -4.1970 H   0  0
   -1.7890   -1.7270   -4.6890 H   0  0
  1 18  1  0
  1  2  1  0
  2 17  1  0
  2 22  1  0
  2 11  1  0
  3 14  2  0
  3  4  1  0
  3  8  1  0
  4  5  2  0
  5 16  1  0
  5  7  1  0
  6  7  2  0
  6 10  1  0
  8 15  1  0
  9 11  1  0
  9 13  1  0
 10 12  1  0
 12 21  1  0
 12 13  1  0
 15 19  1  0
 15 20  1  0
  4 23  1  0
  6 24  1  0
  7 25  1  0
  9 26  1  0
  9 27  1  0
 10 28  1  0
 10 29  1  0
 11 30  1  0
 11 31  1  0
 12 32  1  0
 13 33  1  0
 13 34  1  0
 15 35  1  0
 16 36  1  0
 16 37  1  0
 16 38  1  0
 17 39  1  0
 17 40  1  0
 17 41  1  0
 18 42  1  0
 18 43  1  0
 18 44  1  0
 19 45  1  0
 19 46  1  0
 19 47  1  0
 20 48  1  0
 20 49  1  0
 20 50  1  0
 21 51  1  0
 21 52  1  0
 21 53  1  0
 22 54  1  0
 22 55  1  0
 22 56  1  0
M  END
> <Name>
1,711,973

> <OBJECTID>
9223372165707137035

> <ActiveAidCount>
16

> <AtomChiralCount>
1

> <AtomChiralDefCount>
1

> <AtomChiralUndefCount>
0

> <BondChiralCount>
2

> <BondChiralDefCount>
2

> <BondChiralUndefCount>
0

> <CID>
1711973

> <CanonicalSmiles>
CC(C)OC(=O)C=C(C)C=CCC(C)CCCC(C)(C)OC

> <Complexity>
378

> <CovalentUnitCount>
1

> <CreateDate>
2005/07/12 00:00

> <HeavyAtomCount>
22

> <HydrogenBondAcceptorCount>
3

> <HydrogenBondDonorCount>
0

> <IUPACName>
propan-2-yl (2E,4E,7S)-11-methoxy-3,7,11-trimethyldodeca-2,4-dienoate

> <InChI>
InChI=1S/C19H34O3/c1-15(2)22-18(20)14-17(4)11-8-10-16(3)12-9-13-19(5,6)21-7/h8,11,14-16H,9-10,12-13H2,1-7H3/b11-8+,17-14+/t16-/m1/s1

> <InChIKey>
NFGXHKASABOEEW-GYMWBFJFSA-N

> <IsomericSmiles>
C[C@@H](CCCC(C)(C)OC)C/C=C/C(=C/C(=O)OC(C)C)/C

> <IsotopeAtomCount>
0

> <MolecularFormula>
C19H34O3

> <MolecularWeight>
310.5

> <RotatableBondCount>
11

> <Smiles>
O(C(CCC[C@H](C)C\C=C\C(\C)=C\C(OC(C)C)=O)(C)C)C

> <SourceCategory>
Legacy Depositors
Chemical Vendors
Research and Development
Curation Efforts
Governmental Organizations
NIH Initiatives
Subscription Services
Journal Publishers

> <Synonym>
S-(+)-Methoprene
S-Methoprene
65733-16-6
(S)-methoprene
methoprene (s)
UNII-4YIQ0A94UR
4YIQ0A94UR
d-Methoprene
CHEBI:39255
Flea Killer Plus
(+)-Methoprene
(7S)-Methoprene
propan-2-yl (2E,4E,7S)-11-methoxy-3,7,11-trimethyldodeca-2,4-dienoate
isopropyl (2E,4E,7S)-11-methoxy-3,7,11-trimethyldodeca-2,4-dienoate
Extinguish
Preco
EPA Pesticide Chemical Code 105402
Diacon II
ZR 2458
7S)-Methoprene
Altoside CP 2
Altoside CP 10
Altosid XR Briquets
C19H34O3
(2E,4E,7S)-1-Methylethyl 11-methoxy-3,7,11-trimethyl-2,4-dodecadienoate
Isopropyl (2E,4E,7S)-11-methoxy-3,7,11-trimethyl-2,4-dodecadienoate
2,4-Dodecadienoic acid, 11-methoxy-3,7,11-trimethyl-, 1-methylethyl ester, (2E,4E,7S)-
Methoprene (7S)-form
AC1LVUC4
Spectrum5_001410
(S)-(+)-Methoprene?
DSSTox_CID_15783
DSSTox_RID_79269
DSSTox_GSID_35783
SCHEMBL43694
BSPBio_003468
SPECTRUM1504100
SCHEMBL1190845
CHEMBL1875086
DTXSID1035783
NFGXHKASABOEEW-GYMWBFJFSA-N
HMS1923M17
Pharmakon1600-01504100
ZINC2005163
Tox21_301409
CCG-39694
KM0950
NSC758655
NSC-758655
NCGC00163814-01
NCGC00163814-02
NCGC00255607-01
AS-18089
CJ-30998
SC-21975
SBI-0207033.P001
CAS-65733-16-6
W0072
AB01563364_01
C-19241
UNII-8B830OJ2UX component NFGXHKASABOEEW-GYMWBFJFSA-N
isopropyl (7S)-11-methoxy-3,7,11-trimethyldodeca-2,4-dienoate
(S,2E,4E)-isopropyl 11-methoxy-3,7,11-trimethyldodeca-2,4-dienoate
Prop-2-yl (2E,4E,7S)-11-methoxy-3,7,11-trimethyldodeca-2,4-dienoate

> <TPSA>
35.5

> <TotalAidCount>
283

> <TotalFormalCharge>
0

> <XLogP>
5.5

> <database>
PubChem Compound

> <matchingCount>
176

> <primaryID>
1711973

> <queryTranslation>
7628[CompoundID] OR 244[CompoundID] OR 25059[CompoundID] OR 7618[CompoundID] OR 7641[CompoundID] OR 5053[CompoundID] OR 637511[CompoundID] OR 7714[CompoundID] OR 7762[CompoundID] OR 25429[CompoundID]
OR 8842[CompoundID] OR 7794[CompoundID] OR 637566[CompoundID] OR 7843[CompoundID] OR 174[CompoundID] OR 7870[CompoundID] OR 86102[CompoundID] OR 7888[CompoundID] OR 7896[CompoundID] OR 1140[CompoundID
] OR 8042[CompoundID] OR 8058[CompoundID] OR 8078[CompoundID] OR 8087[CompoundID] OR 8117[CompoundID] OR 8133[CompoundID] OR 115224[CompoundID] OR 8175[CompoundID] OR 8194[CompoundID] OR 445639[Compou
ndID] OR 4944[CompoundID] OR 8294[CompoundID] OR 93541[CompoundID] OR 8360[CompoundID] OR 8363[CompoundID] OR 656612[CompoundID] OR 125098[CompoundID] OR 3352[CompoundID] OR 3303913[CompoundID] OR 648
05[CompoundID] OR 31200[CompoundID] OR 1712058[CompoundID] OR 31236[CompoundID] OR 31239[CompoundID] OR 31265[CompoundID] OR 31266[CompoundID] OR 31276[CompoundID] OR 6950273[CompoundID] OR 518659[Com
poundID] OR 14896[CompoundID] OR 14798[CompoundID] OR 14829[CompoundID] OR 14830[CompoundID] OR 8635[CompoundID] OR 23266[CompoundID] OR 4284[CompoundID] OR 8693[CompoundID] OR 22311[CompoundID] OR 87
59[CompoundID] OR 8785[CompoundID] OR 2723810[CompoundID] OR 8857[CompoundID] OR 3893[CompoundID] OR 9936739[CompoundID] OR 516892[CompoundID] OR 5430[CompoundID] OR 9017[CompoundID] OR 15433[Compound
ID] OR 107720[CompoundID] OR 9552081[CompoundID] OR 164825[CompoundID] OR 10275455[CompoundID] OR 16666[CompoundID] OR 9839306[CompoundID] OR 5282227[CompoundID] OR 23676745[CompoundID] OR 32881[Compo
undID] OR 91581[CompoundID] OR 39800[CompoundID] OR 33344[CompoundID] OR 15962220[CompoundID] OR 33528[CompoundID] OR 5365075[CompoundID] OR 62829[CompoundID] OR 162381[CompoundID] OR 517202[CompoundI
D] OR 6433353[CompoundID] OR 2730[CompoundID] OR 5372405[CompoundID] OR 36081[CompoundID] OR 3120[CompoundID] OR 3017[CompoundID] OR 2969[CompoundID] OR 18827[CompoundID] OR 19518[CompoundID] OR 19658
[CompoundID] OR 38283[CompoundID] OR 2758[CompoundID] OR 10112[CompoundID] OR 10340[CompoundID] OR 712[CompoundID] OR 5794[CompoundID] OR 3347[CompoundID] OR 104150[CompoundID] OR 2912[CompoundID] OR
2450[CompoundID] OR 40326[CompoundID] OR 40585[CompoundID] OR 517055[CompoundID] OR 10913[CompoundID] OR 108242[CompoundID] OR 62097[CompoundID] OR 41679[CompoundID] OR 54680676[CompoundID] OR 62118[C
ompoundID] OR 753[CompoundID] OR 1030[CompoundID] OR 23673837[CompoundID] OR 54678504[CompoundID] OR 11442[CompoundID] OR 11463[CompoundID] OR 22230[CompoundID] OR 440917[CompoundID] OR 6054[CompoundI
D] OR 43234[CompoundID] OR 22629[CompoundID] OR 3039[CompoundID] OR 2735067[CompoundID] OR 6144[CompoundID] OR 702[CompoundID] OR 284[CompoundID] OR 176[CompoundID] OR 91688[CompoundID] OR 22947[Compo
undID] OR 47445[CompoundID] OR 1711973[CompoundID] OR 243[CompoundID] OR 10342051[CompoundID] OR 5281875[CompoundID] OR 3776[CompoundID] OR 6224[CompoundID] OR 104926[CompoundID] OR 8755[CompoundID] O
R 338[CompoundID] OR 123622[CompoundID] OR 23954[CompoundID] OR 6334[CompoundID] OR 2537[CompoundID] OR 24261[CompoundID] OR 23665760[CompoundID] OR 83975[CompoundID] OR 784[CompoundID] OR 24437[Compo
undID] OR 5360315[CompoundID] OR 311[CompoundID] OR 6549[CompoundID] OR 107689[CompoundID] OR 17100[CompoundID] OR 24976875[CompoundID] OR 6654[CompoundID] OR 71245[CompoundID] OR 6442842[CompoundID]
OR 62334[CompoundID] OR 54698175[CompoundID] OR 6328154[CompoundID] OR 24762[CompoundID] OR 440950[CompoundID] OR 7017[CompoundID] OR 5281873[CompoundID] OR 323[CompoundID] OR 5281167[CompoundID] OR 7
175[CompoundID] OR 7292[CompoundID] OR 6335613[CompoundID] OR 7456[CompoundID] OR 7462[CompoundID]

> <resultIndex>
30

> <resultRange>
1-176

> <textQuery>
7628,244,25059,7618,7641,5053,637511,7714,7762,25429,8842,7794,637566,7843,174,7870,86102,7888,7896,1140,8042,8058,8078,8087,8117,8133,115224,8175,8194,445639,4944,8294,93541,8360,8363,656612,125098,3
352,3303913,64805,31200,1712058,31236,31239,31265,31266,31276,6950273,518659,14896,14798,14829,14830,8635,23266,4284,8693,22311,8759,8785,2723810,8857,3893,9936739,516892,5430,9017,15433,107720,955208
1,164825,10275455,16666,9839306,5282227,23676745,32881,91581,39800,33344,15962220,33528,5365075,62829,162381,517202,6433353,2730,5372405,36081,3120,3017,2969,18827,19518,19658,38283,2758,10112,10340,7
12,5794,3347,104150,2912,2450,40326,40585,517055,10913,108242,62097,41679,54680676,62118,753,1030,23673837,54678504,11442,11463,22230,440917,6054,43234,22629,3039,2735067,6144,702,284,176,91688,22947,
47445,1711973,243,10342051,5281875,3776,6224,104926,8755,338,123622,23954,6334,2537,24261,23665760,83975,784,24437,5360315,311,6549,107689,17100,24976875,6654,71245,6442842,62334,54698175,6328154,2476
2,440950,7017,5281873,323,5281167,7175,7292,6335613,7456,7462

$$$$
656,612
  SciTegic10191915303D

 35 36  0  0  1  0            999 V2000
   -1.0570   -6.2750    2.7850 Cl  0  0
   -3.0590   -4.1210    2.2130 Cl  0  0
   -1.3050    2.9690   -1.5920 F   0  0
    3.2620    1.7770   -2.1500 F   0  0
   -0.5660    5.5840   -1.2130 F   0  0
    3.9800    4.3990   -1.7730 F   0  0
    0.5740    0.2340   -0.8300 O   0  0
   -0.0590   -1.5720   -1.9940 O   0  0
   -0.8540   -1.5310    1.4080 C   0  0
    0.2110   -1.8160    0.3610 C   0  0  1  0  0  0
   -0.8910   -2.8240    0.6110 C   0  0  1  0  0  0
    0.2270   -1.0430   -0.9450 C   0  0
   -0.5490   -4.1450    1.2790 C   0  0
   -0.4260   -1.5800    2.8710 C   0  0
   -1.9260   -0.4920    1.1000 C   0  0
    0.9670    2.3320   -1.8750 C   0  0
   -0.0180    3.3110   -1.6350 C   0  0
    2.3260    2.6990   -1.9220 C   0  0
    0.5720    0.9100   -2.0780 C   0  0
    0.3590    4.6520   -1.4410 C   0  0
    2.6990    4.0430   -1.7290 C   0  0
   -1.4710   -4.7810    2.0200 C   0  0
    1.7150    5.0180   -1.4880 C   0  0
    1.2030   -2.0740    0.7360 H   0  0
   -1.6620   -2.9020   -0.1540 H   0  0
    0.4100   -4.6390    1.2090 H   0  0
   -1.2360   -1.9160    3.5200 H   0  0
   -0.1090   -0.5960    3.2130 H   0  0
    0.4120   -2.2660    3.0040 H   0  0
   -2.7950   -0.6330    1.7400 H   0  0
   -1.5370    0.5180    1.2440 H   0  0
   -2.2580   -0.5760    0.0640 H   0  0
   -0.4380    0.8690   -2.4860 H   0  0
    1.2950    0.4220   -2.7320 H   0  0
    2.0020    6.0470   -1.3400 H   0  0
  1 22  1  0
  2 22  1  0
  3 17  1  0
  4 18  1  0
  5 20  1  0
  6 21  1  0
  7 12  1  0
  7 19  1  0
  8 12  2  0
  9 10  1  0
  9 11  1  0
  9 14  1  0
  9 15  1  0
 10 11  1  0
 10 12  1  0
 11 13  1  0
 13 22  2  0
 16 17  2  0
 16 18  1  0
 16 19  1  0
 17 20  1  0
 18 21  2  0
 20 23  2  0
 21 23  1  0
 10 24  1  0
 11 25  1  0
 13 26  1  0
 14 27  1  0
 14 28  1  0
 14 29  1  0
 15 30  1  0
 15 31  1  0
 15 32  1  0
 19 33  1  0
 19 34  1  0
 23 35  1  0
M  END
> <Name>
656,612

> <OBJECTID>
9223372170002104331

> <ActiveAidCount>
2

> <AtomChiralCount>
2

> <AtomChiralDefCount>
2

> <AtomChiralUndefCount>
0

> <BondChiralCount>
0

> <BondChiralDefCount>
0

> <BondChiralUndefCount>
0

> <CID>
656612

> <CanonicalSmiles>
CC1(C(C1C(=O)OCC2=C(C(=CC(=C2F)F)F)F)C=C(Cl)Cl)C

> <Complexity>
482

> <CovalentUnitCount>
1

> <CreateDate>
2005/06/24 00:00

> <HeavyAtomCount>
23

> <HydrogenBondAcceptorCount>
6

> <HydrogenBondDonorCount>
0

> <IUPACName>
(2,3,5,6-tetrafluorophenyl)methyl (1R,3S)-3-(2,2-dichloroethenyl)-2,2-dimethylcyclopropane-1-carboxylate

> <InChI>
InChI=1S/C15H12Cl2F4O2/c1-15(2)7(3-10(16)17)11(15)14(22)23-5-6-12(20)8(18)4-9(19)13(6)21/h3-4,7,11H,5H2,1-2H3/t7-,11+/m1/s1

> <InChIKey>
DDVNRFNDOPPVQJ-HQJQHLMTSA-N

> <IsomericSmiles>
CC1([C@@H]([C@H]1C(=O)OCC2=C(C(=CC(=C2F)F)F)F)C=C(Cl)Cl)C

> <IsotopeAtomCount>
0

> <MeSHHeading>
transfluthrin

> <MeSHTerm>
transfluthrin
2,3,5,6-tetrafluorobenzyl (+)-(1R-trans)-2,2-dimethyl-3-(2,2-dichlorovinyl)cyclopropanecarboxylate

> <MolecularFormula>
C15H12Cl2F4O2

> <MolecularWeight>
371.2

> <PharmAction>
Toxic Actions
Insecticides
Pesticides
Specialty Uses of Chemicals
Chemical Actions and Uses
Agrochemicals

> <RotatableBondCount>
5

> <Smiles>
Cl\C(=C\[C@H]([C@H]1C(=O)OCc2c(c(cc(c2F)F)F)F)C1(C)C)\Cl

> <SourceCategory>
Legacy Depositors
Chemical Vendors
Research and Development
Curation Efforts
Governmental Organizations
NIH Initiatives
Subscription Services
Journal Publishers

> <Synonym>
Transfluthrin
118712-89-3
UNII-QWL3SKA6EG
QWL3SKA6EG
CHEBI:32253
(2,3,5,6-Tetrafluorophenyl)methyl(1R,3S)-3-(2,2-dichloroethenyl)-2,2-dimethylcyclopropanecarboxylate
(2,3,5,6-tetrafluorophenyl)methyl (1R,3S)-3-(2,2-dichloroethenyl)-2,2-dimethylcyclopropane-1-carboxylate
2,3,5,6-tetrafluorobenzyl (1R,3S)-3-(2,2-dichloroethenyl)-2,2-dimethylcyclopropanecarboxylate
Transfluthrin [ISO]
NCGC00181025-01
Transfluthrin (JAN)
AC1LCVAG
DSSTox_CID_26812
DSSTox_RID_81924
DSSTox_GSID_46812
SCHEMBL26844
Cyclopropanecarboxylic acid, 3-(2,2-dichloroethenyl)-2,2-dimethyl-, (2,3,5,6-tetrafluorophenyl)methyl ester, (1R,3S)-
CHEMBL3184657
DTXSID4046812
DDVNRFNDOPPVQJ-HQJQHLMTSA-N
ZINC5455493
Tox21_112675
MFCD11045989
AKOS015899270
Transfluthrin 10 microg/mL in Cyclohexane
CAS-118712-89-3
C13410
D01932
K-1327
Transfluthrin, PESTANAL(R), analytical standard
712T893
I14-12030
2,3,5,6-tetrafluorobenzyl (1r)-trans-3-(2,2-dichlorovinyl)-2,2-dimethylcyclopropanecarboxylate

> <TPSA>
26.3

> <TotalAidCount>
75

> <TotalFormalCharge>
0

> <XLogP>
5

> <database>
PubChem Compound

> <matchingCount>
176

> <primaryID>
656612

> <queryTranslation>
7628[CompoundID] OR 244[CompoundID] OR 25059[CompoundID] OR 7618[CompoundID] OR 7641[CompoundID] OR 5053[CompoundID] OR 637511[CompoundID] OR 7714[CompoundID] OR 7762[CompoundID] OR 25429[CompoundID]
OR 8842[CompoundID] OR 7794[CompoundID] OR 637566[CompoundID] OR 7843[CompoundID] OR 174[CompoundID] OR 7870[CompoundID] OR 86102[CompoundID] OR 7888[CompoundID] OR 7896[CompoundID] OR 1140[CompoundID
] OR 8042[CompoundID] OR 8058[CompoundID] OR 8078[CompoundID] OR 8087[CompoundID] OR 8117[CompoundID] OR 8133[CompoundID] OR 115224[CompoundID] OR 8175[CompoundID] OR 8194[CompoundID] OR 445639[Compou
ndID] OR 4944[CompoundID] OR 8294[CompoundID] OR 93541[CompoundID] OR 8360[CompoundID] OR 8363[CompoundID] OR 656612[CompoundID] OR 125098[CompoundID] OR 3352[CompoundID] OR 3303913[CompoundID] OR 648
05[CompoundID] OR 31200[CompoundID] OR 1712058[CompoundID] OR 31236[CompoundID] OR 31239[CompoundID] OR 31265[CompoundID] OR 31266[CompoundID] OR 31276[CompoundID] OR 6950273[CompoundID] OR 518659[Com
poundID] OR 14896[CompoundID] OR 14798[CompoundID] OR 14829[CompoundID] OR 14830[CompoundID] OR 8635[CompoundID] OR 23266[CompoundID] OR 4284[CompoundID] OR 8693[CompoundID] OR 22311[CompoundID] OR 87
59[CompoundID] OR 8785[CompoundID] OR 2723810[CompoundID] OR 8857[CompoundID] OR 3893[CompoundID] OR 9936739[CompoundID] OR 516892[CompoundID] OR 5430[CompoundID] OR 9017[CompoundID] OR 15433[Compound
ID] OR 107720[CompoundID] OR 9552081[CompoundID] OR 164825[CompoundID] OR 10275455[CompoundID] OR 16666[CompoundID] OR 9839306[CompoundID] OR 5282227[CompoundID] OR 23676745[CompoundID] OR 32881[Compo
undID] OR 91581[CompoundID] OR 39800[CompoundID] OR 33344[CompoundID] OR 15962220[CompoundID] OR 33528[CompoundID] OR 5365075[CompoundID] OR 62829[CompoundID] OR 162381[CompoundID] OR 517202[CompoundI
D] OR 6433353[CompoundID] OR 2730[CompoundID] OR 5372405[CompoundID] OR 36081[CompoundID] OR 3120[CompoundID] OR 3017[CompoundID] OR 2969[CompoundID] OR 18827[CompoundID] OR 19518[CompoundID] OR 19658
[CompoundID] OR 38283[CompoundID] OR 2758[CompoundID] OR 10112[CompoundID] OR 10340[CompoundID] OR 712[CompoundID] OR 5794[CompoundID] OR 3347[CompoundID] OR 104150[CompoundID] OR 2912[CompoundID] OR
2450[CompoundID] OR 40326[CompoundID] OR 40585[CompoundID] OR 517055[CompoundID] OR 10913[CompoundID] OR 108242[CompoundID] OR 62097[CompoundID] OR 41679[CompoundID] OR 54680676[CompoundID] OR 62118[C
ompoundID] OR 753[CompoundID] OR 1030[CompoundID] OR 23673837[CompoundID] OR 54678504[CompoundID] OR 11442[CompoundID] OR 11463[CompoundID] OR 22230[CompoundID] OR 440917[CompoundID] OR 6054[CompoundI
D] OR 43234[CompoundID] OR 22629[CompoundID] OR 3039[CompoundID] OR 2735067[CompoundID] OR 6144[CompoundID] OR 702[CompoundID] OR 284[CompoundID] OR 176[CompoundID] OR 91688[CompoundID] OR 22947[Compo
undID] OR 47445[CompoundID] OR 1711973[CompoundID] OR 243[CompoundID] OR 10342051[CompoundID] OR 5281875[CompoundID] OR 3776[CompoundID] OR 6224[CompoundID] OR 104926[CompoundID] OR 8755[CompoundID] O
R 338[CompoundID] OR 123622[CompoundID] OR 23954[CompoundID] OR 6334[CompoundID] OR 2537[CompoundID] OR 24261[CompoundID] OR 23665760[CompoundID] OR 83975[CompoundID] OR 784[CompoundID] OR 24437[Compo
undID] OR 5360315[CompoundID] OR 311[CompoundID] OR 6549[CompoundID] OR 107689[CompoundID] OR 17100[CompoundID] OR 24976875[CompoundID] OR 6654[CompoundID] OR 71245[CompoundID] OR 6442842[CompoundID]
OR 62334[CompoundID] OR 54698175[CompoundID] OR 6328154[CompoundID] OR 24762[CompoundID] OR 440950[CompoundID] OR 7017[CompoundID] OR 5281873[CompoundID] OR 323[CompoundID] OR 5281167[CompoundID] OR 7
175[CompoundID] OR 7292[CompoundID] OR 6335613[CompoundID] OR 7456[CompoundID] OR 7462[CompoundID]

> <resultIndex>
31

> <resultRange>
1-176

> <textQuery>
7628,244,25059,7618,7641,5053,637511,7714,7762,25429,8842,7794,637566,7843,174,7870,86102,7888,7896,1140,8042,8058,8078,8087,8117,8133,115224,8175,8194,445639,4944,8294,93541,8360,8363,656612,125098,3
352,3303913,64805,31200,1712058,31236,31239,31265,31266,31276,6950273,518659,14896,14798,14829,14830,8635,23266,4284,8693,22311,8759,8785,2723810,8857,3893,9936739,516892,5430,9017,15433,107720,955208
1,164825,10275455,16666,9839306,5282227,23676745,32881,91581,39800,33344,15962220,33528,5365075,62829,162381,517202,6433353,2730,5372405,36081,3120,3017,2969,18827,19518,19658,38283,2758,10112,10340,7
12,5794,3347,104150,2912,2450,40326,40585,517055,10913,108242,62097,41679,54680676,62118,753,1030,23673837,54678504,11442,11463,22230,440917,6054,43234,22629,3039,2735067,6144,702,284,176,91688,22947,
47445,1711973,243,10342051,5281875,3776,6224,104926,8755,338,123622,23954,6334,2537,24261,23665760,83975,784,24437,5360315,311,6549,107689,17100,24976875,6654,71245,6442842,62334,54698175,6328154,2476
2,440950,7017,5281873,323,5281167,7175,7292,6335613,7456,7462

$$$$
637,566
  SciTegic10191915303D

 29 28  0  0  0  0            999 V2000
   -0.0600   -4.1520    0.4450 O   0  0
   -1.2600   -0.7560    0.7690 C   0  0
   -0.7280    0.5370    1.3260 C   0  0
   -0.5390   -1.8750    0.9490 C   0  0
   -0.6270    1.6310    0.2620 C   0  0
    0.2660    1.2350   -0.8850 C   0  0
    1.5630    1.5780   -0.8360 C   0  0
   -1.0700   -3.1700    0.3940 C   0  0
   -2.5600   -0.8530    0.0190 C   0  0
    2.0740    2.2800    0.3940 C   0  0
    2.4400    1.2440   -2.0140 C   0  0
    0.6430   -3.8710   -0.1640 H   0  0
   -1.4100    0.9200    2.0860 H   0  0
    0.2380    0.3690    1.7990 H   0  0
    0.4060   -1.9300    1.4690 H   0  0
   -0.2150    2.5040    0.7670 H   0  0
   -1.6150    1.8990   -0.1130 H   0  0
   -0.2050    0.6900   -1.6900 H   0  0
   -1.3590   -3.0330   -0.6490 H   0  0
   -1.9100   -3.5150    0.9960 H   0  0
   -3.1660   -1.7130    0.3100 H   0  0
   -2.3670   -0.9280   -1.0510 H   0  0
   -3.1540    0.0450    0.1890 H   0  0
    1.7400    1.8220    1.3260 H   0  0
    1.7400    3.3190    0.3940 H   0  0
    3.1640    2.2800    0.3940 H   0  0
    1.8540    1.2810   -2.9320 H   0  0
    3.2870    1.9280   -2.0490 H   0  0
    2.8300    0.2330   -1.9080 H   0  0
  1  8  1  0
  2  3  1  0
  2  4  2  0
  2  9  1  0
  3  5  1  0
  4  8  1  0
  5  6  1  0
  6  7  2  0
  7 10  1  0
  7 11  1  0
  1 12  1  0
  3 13  1  0
  3 14  1  0
  4 15  1  0
  5 16  1  0
  5 17  1  0
  6 18  1  0
  8 19  1  0
  8 20  1  0
  9 21  1  0
  9 22  1  0
  9 23  1  0
 10 24  1  0
 10 25  1  0
 10 26  1  0
 11 27  1  0
 11 28  1  0
 11 29  1  0
M  END
> <Name>
637,566

> <OBJECTID>
9223372174297071627

> <ActiveAidCount>
9

> <AtomChiralCount>
0

> <AtomChiralDefCount>
0

> <AtomChiralUndefCount>
0

> <BondChiralCount>
1

> <BondChiralDefCount>
1

> <BondChiralUndefCount>
0

> <CID>
637566

> <CanonicalSmiles>
CC(=CCCC(=CCO)C)C

> <Complexity>
150

> <CovalentUnitCount>
1

> <CreateDate>
2004/09/16 00:00

> <HeavyAtomCount>
11

> <HydrogenBondAcceptorCount>
1

> <HydrogenBondDonorCount>
1

> <IUPACName>
(2E)-3,7-dimethylocta-2,6-dien-1-ol

> <InChI>
InChI=1S/C10H18O/c1-9(2)5-4-6-10(3)7-8-11/h5,7,11H,4,6,8H2,1-3H3/b10-7+

> <InChIKey>
GLZPCOQZEFWAFX-JXMROGBWSA-N

> <IsomericSmiles>
CC(=CCC/C(=C/CO)/C)C

> <IsotopeAtomCount>
0

> <MeSHHeading>
geraniol

> <MeSHTerm>
geraniol, 1-(14)C-labeled, (E)-isomer
geraniol, titanium (4+) salt
geraniol, (E)-isomer
geraniol, (Z)-isomer
nerol
geraniol, 2-(14)C-labeled, (E)-isomer
geraniol

> <MolecularFormula>
C10H18O

> <MolecularWeight>
154.25

> <RotatableBondCount>
4

> <Smiles>
OC\C=C(/C)\CC\C=C(/C)\C

> <SourceCategory>
Legacy Depositors
Chemical Vendors
Research and Development
Curation Efforts
Governmental Organizations
NIH Initiatives
Subscription Services
Journal Publishers

> <Synonym>
GERANIOL
106-24-1
Lemonol
Geranyl alcohol
trans-Geraniol
(E)-Geraniol
(E)-3,7-Dimethylocta-2,6-dien-1-ol
(2E)-3,7-dimethylocta-2,6-dien-1-ol
(E)-Nerol
trans-3,7-Dimethyl-2,6-octadien-1-ol
(E)-3,7-Dimethyl-2,6-octadien-1-ol
Geraniol Extra
3,7-Dimethyl-2,6-octadien-1-ol
Geraniol alcohol
beta-Geraniol
3,7-Dimethyl-trans-2,6-octadien-1-ol
2,6-Octadien-1-ol, 3,7-dimethyl-, (2E)-
Guaniol
t-geraniol
2E-geraniol
Geraniol (natural)
2-trans-3,7-Dimethyl-2,6-octadien-1-ol
Meranol
2,6-Octadien-1-ol, 3,7-dimethyl-
CHEBI:17447
(2E)-3,7-Dimethyl-2,6-octadien-1-ol
NSC 9279
MFCD00002917
2,6-Octadien-1-ol, 3,7-dimethyl-, (E)-
UNII-L837108USY
FEMA No. 2507
CCRIS 7243
HSDB 484
NSC9279
NSC-9279
2,6-Dimethyl-2,6-octadien-8-ol
2,6-Octadien-1-ol, 3,7-dimethyl-, trans-
EINECS 203-377-1
EPA Pesticide Chemical Code 597501
BRN 1722456
AI3-00206
3,7-Dimethyl-2,6-octadien-1-ol, (E)-
3,7-dimethylocta-2,6-dien-1-ol
GLZPCOQZEFWAFX-JXMROGBWSA-N
L837108USY
NSC-46105
Geraniol, 99%
2,6-Dimethyl-trans-2,6-octadien-8-ol
trans-2,6-Dimethyl-2,6-octadien-8-ol
2-trans-3,7-dimethyl-2,6-octadiene-1-ol
DSSTox_CID_6727
624-15-7
DSSTox_RID_78202
DSSTox_GSID_26727
3,7-Dimethyl-2,6-octadienol
racemic Geraniol
CAS-106-24-1
1-Octanol, 3,7-dimethyl-, tetradehydro deriv.
FEMA No. 2770
GLZPCOQZEFWAFX-UHFFFAOYSA-N
Neraniol
b-Geraniol
EINECS 203-378-7
.beta.-Geraniol
Geraniol 98
Geraniol (E)
64Z
68311-14-8
InChI=1/C10H18O/c1-9(2)5-4-6-10(3)7-8-11/h5,7,11H,4,6,8H2,1-3H3/b10-7
EINECS 210-831-2
EINECS 269-750-6
AI3-28202
3,7-Dimethyl-2,6-octadien-1-ol, (Z)-
Geraniol, 98%
AC1LCUHT
2,6-octadien-8-ol
trans-3,7-dimethyl-2,6-octadien-8-ol
GERANIOL BRI FCC
AC1Q7BUA
Spectrum5_001513
cis-3,6-octadien-1-ol
Epitope ID:181525
EC 203-377-1
trans-3,6-octadien-1-ol
3,7-Dimethyloctan-1-ol, tetradehydro derivative
SCHEMBL19824
SCHEMBL19826
BSPBio_002919
Geraniol, analytical standard
4-01-00-02277 (Beilstein Handbook Reference)
CHEMBL25719
SPECTRUM1501132
2, 3,7-dimethyl-, trans-
GTPL2467
Jsp000567
2, 3,7-dimethyl-,(Z)-
DTXSID8026727
CHEBI:24221
FEMA 2507
HMS500J15
NCI9279
2, 3,7-dimethyl-, (E)-
2, 3,7-dimethyl-, (Z)-
Geraniol, >=97%, FCC, FG
Geraniol, natural, >=97%, FG
HMS1921H17
NSC46105
ZINC1529210
Tox21_110010
Tox21_202386
Tox21_300136
(E)-3,7-dimethyl-2,6-octadienol
BDBM50037023
CCG-37618
NCGC00013095
SBB007719
WLN: Q2UY1&3UY1&1 -T
AKOS009031393
Tox21_110010_1
ACN-052273
EBD2761143
FCH2256423
FCH3409296
FCH4510642
LMPR0102010016
LS-2765
LS-2977
RP21876
RTR-001237
(E)-3,7-dimethyl-2,6octadien-1-ol
IDI1_000193
Geraniol 1000 microg/mL in Isopropanol
NCGC00013095-01
NCGC00013095-02
NCGC00013095-03
NCGC00013095-04
NCGC00013095-05
NCGC00013095-06
NCGC00013095-07
NCGC00013095-08
NCGC00013095-10
NCGC00094905-01
NCGC00094905-02
NCGC00094905-03
NCGC00094905-04
NCGC00094905-05
NCGC00253926-01
NCGC00259935-01
3,7-Dimethyl-(E)-2,6-Octadien-1-ol
3,7-dimethyl-trans-2,6-octadiene-1-ol
AJ-26579
AN-22418
AS-12880
BBV-34551455
CJ-05167
Geraniol, Vetec(TM) reagent grade, 97%
Octadien-1-ol, 3,7-dimethyl-, (E)-
SC-22671
SC-79539
(2E)-3,7-dimethyl-1-octa-2,6-dienol
(E)-3,7-dimethyl-octa-2,6-dien-1-ol
trans-3,7-Dimethy- octa-2,6-dien-1-ol
trans-3,7-Dimethyl octa-2,6-dien-1-ol
WLN: Q2UY1 & 3UY1 & 1-C
WLN: Q2UY1 & 3YU1 & 1-Z
3,7-Dimethyl-(2E)-2,6-Octadien-1-ol
TR-001237
G0027
ST24026345
ST50824486
(2E)-3,7-Dimethyl-2,6-octadien-1-ol #
C01500
3,7-DIMETHYL-2,6-OCTADIEN-1-OL(TRANS)
A834344
SR-05000002389
I14-6948
Q-201154
SR-05000002389-1
BRD-K03568070-001-01-1
I14-17819
A884F9B1-42B7-4350-ACC7-8E71E86A9943

> <TPSA>
20.2

> <TotalAidCount>
804

> <TotalFormalCharge>
0

> <XLogP>
2.9

> <database>
PubChem Compound

> <matchingCount>
176

> <primaryID>
637566

> <queryTranslation>
7628[CompoundID] OR 244[CompoundID] OR 25059[CompoundID] OR 7618[CompoundID] OR 7641[CompoundID] OR 5053[CompoundID] OR 637511[CompoundID] OR 7714[CompoundID] OR 7762[CompoundID] OR 25429[CompoundID]
OR 8842[CompoundID] OR 7794[CompoundID] OR 637566[CompoundID] OR 7843[CompoundID] OR 174[CompoundID] OR 7870[CompoundID] OR 86102[CompoundID] OR 7888[CompoundID] OR 7896[CompoundID] OR 1140[CompoundID
] OR 8042[CompoundID] OR 8058[CompoundID] OR 8078[CompoundID] OR 8087[CompoundID] OR 8117[CompoundID] OR 8133[CompoundID] OR 115224[CompoundID] OR 8175[CompoundID] OR 8194[CompoundID] OR 445639[Compou
ndID] OR 4944[CompoundID] OR 8294[CompoundID] OR 93541[CompoundID] OR 8360[CompoundID] OR 8363[CompoundID] OR 656612[CompoundID] OR 125098[CompoundID] OR 3352[CompoundID] OR 3303913[CompoundID] OR 648
05[CompoundID] OR 31200[CompoundID] OR 1712058[CompoundID] OR 31236[CompoundID] OR 31239[CompoundID] OR 31265[CompoundID] OR 31266[CompoundID] OR 31276[CompoundID] OR 6950273[CompoundID] OR 518659[Com
poundID] OR 14896[CompoundID] OR 14798[CompoundID] OR 14829[CompoundID] OR 14830[CompoundID] OR 8635[CompoundID] OR 23266[CompoundID] OR 4284[CompoundID] OR 8693[CompoundID] OR 22311[CompoundID] OR 87
59[CompoundID] OR 8785[CompoundID] OR 2723810[CompoundID] OR 8857[CompoundID] OR 3893[CompoundID] OR 9936739[CompoundID] OR 516892[CompoundID] OR 5430[CompoundID] OR 9017[CompoundID] OR 15433[Compound
ID] OR 107720[CompoundID] OR 9552081[CompoundID] OR 164825[CompoundID] OR 10275455[CompoundID] OR 16666[CompoundID] OR 9839306[CompoundID] OR 5282227[CompoundID] OR 23676745[CompoundID] OR 32881[Compo
undID] OR 91581[CompoundID] OR 39800[CompoundID] OR 33344[CompoundID] OR 15962220[CompoundID] OR 33528[CompoundID] OR 5365075[CompoundID] OR 62829[CompoundID] OR 162381[CompoundID] OR 517202[CompoundI
D] OR 6433353[CompoundID] OR 2730[CompoundID] OR 5372405[CompoundID] OR 36081[CompoundID] OR 3120[CompoundID] OR 3017[CompoundID] OR 2969[CompoundID] OR 18827[CompoundID] OR 19518[CompoundID] OR 19658
[CompoundID] OR 38283[CompoundID] OR 2758[CompoundID] OR 10112[CompoundID] OR 10340[CompoundID] OR 712[CompoundID] OR 5794[CompoundID] OR 3347[CompoundID] OR 104150[CompoundID] OR 2912[CompoundID] OR
2450[CompoundID] OR 40326[CompoundID] OR 40585[CompoundID] OR 517055[CompoundID] OR 10913[CompoundID] OR 108242[CompoundID] OR 62097[CompoundID] OR 41679[CompoundID] OR 54680676[CompoundID] OR 62118[C
ompoundID] OR 753[CompoundID] OR 1030[CompoundID] OR 23673837[CompoundID] OR 54678504[CompoundID] OR 11442[CompoundID] OR 11463[CompoundID] OR 22230[CompoundID] OR 440917[CompoundID] OR 6054[CompoundI
D] OR 43234[CompoundID] OR 22629[CompoundID] OR 3039[CompoundID] OR 2735067[CompoundID] OR 6144[CompoundID] OR 702[CompoundID] OR 284[CompoundID] OR 176[CompoundID] OR 91688[CompoundID] OR 22947[Compo
undID] OR 47445[CompoundID] OR 1711973[CompoundID] OR 243[CompoundID] OR 10342051[CompoundID] OR 5281875[CompoundID] OR 3776[CompoundID] OR 6224[CompoundID] OR 104926[CompoundID] OR 8755[CompoundID] O
R 338[CompoundID] OR 123622[CompoundID] OR 23954[CompoundID] OR 6334[CompoundID] OR 2537[CompoundID] OR 24261[CompoundID] OR 23665760[CompoundID] OR 83975[CompoundID] OR 784[CompoundID] OR 24437[Compo
undID] OR 5360315[CompoundID] OR 311[CompoundID] OR 6549[CompoundID] OR 107689[CompoundID] OR 17100[CompoundID] OR 24976875[CompoundID] OR 6654[CompoundID] OR 71245[CompoundID] OR 6442842[CompoundID]
OR 62334[CompoundID] OR 54698175[CompoundID] OR 6328154[CompoundID] OR 24762[CompoundID] OR 440950[CompoundID] OR 7017[CompoundID] OR 5281873[CompoundID] OR 323[CompoundID] OR 5281167[CompoundID] OR 7
175[CompoundID] OR 7292[CompoundID] OR 6335613[CompoundID] OR 7456[CompoundID] OR 7462[CompoundID]

> <resultIndex>
32

> <resultRange>
1-176

> <textQuery>
7628,244,25059,7618,7641,5053,637511,7714,7762,25429,8842,7794,637566,7843,174,7870,86102,7888,7896,1140,8042,8058,8078,8087,8117,8133,115224,8175,8194,445639,4944,8294,93541,8360,8363,656612,125098,3
352,3303913,64805,31200,1712058,31236,31239,31265,31266,31276,6950273,518659,14896,14798,14829,14830,8635,23266,4284,8693,22311,8759,8785,2723810,8857,3893,9936739,516892,5430,9017,15433,107720,955208
1,164825,10275455,16666,9839306,5282227,23676745,32881,91581,39800,33344,15962220,33528,5365075,62829,162381,517202,6433353,2730,5372405,36081,3120,3017,2969,18827,19518,19658,38283,2758,10112,10340,7
12,5794,3347,104150,2912,2450,40326,40585,517055,10913,108242,62097,41679,54680676,62118,753,1030,23673837,54678504,11442,11463,22230,440917,6054,43234,22629,3039,2735067,6144,702,284,176,91688,22947,
47445,1711973,243,10342051,5281875,3776,6224,104926,8755,338,123622,23954,6334,2537,24261,23665760,83975,784,24437,5360315,311,6549,107689,17100,24976875,6654,71245,6442842,62334,54698175,6328154,2476
2,440950,7017,5281873,323,5281167,7175,7292,6335613,7456,7462

$$$$
637,511
  SciTegic10191915303D

 18 18  0  0  0  0            999 V2000
    0.4320    4.4390   -0.9680 O   0  0
    0.9760    3.4980   -0.4410 C   0  0
    0.3280    2.1820   -0.4180 C   0  0
    0.9320    1.1330    0.1660 C   0  0
    0.2320   -0.1860    0.1660 C   0  0
   -1.1740   -0.2380    0.1660 C   0  0
   -1.8320   -1.4810    0.1660 C   0  0
   -1.0860   -2.6720    0.1660 C   0  0
    0.3180   -2.6210    0.1660 C   0  0
    0.9780   -1.3790    0.1660 C   0  0
    1.9450    3.5470    0.0340 H   0  0
   -0.6390    1.9760   -0.8510 H   0  0
    1.8980    1.1640    0.6470 H   0  0
   -1.7560    0.6720    0.1660 H   0  0
   -2.9120   -1.5200    0.1660 H   0  0
   -1.5920   -3.6270    0.1660 H   0  0
    0.8920   -3.5370    0.1660 H   0  0
    2.0590   -1.3500    0.1660 H   0  0
  1  2  2  0
  2  3  1  0
  3  4  2  0
  4  5  1  0
  5  6  2  0
  5 10  1  0
  6  7  1  0
  7  8  2  0
  8  9  1  0
  9 10  2  0
  2 11  1  0
  3 12  1  0
  4 13  1  0
  6 14  1  0
  7 15  1  0
  8 16  1  0
  9 17  1  0
 10 18  1  0
M  END
> <Name>
637,511

> <OBJECTID>
9223372178592038923

> <ActiveAidCount>
24

> <AtomChiralCount>
0

> <AtomChiralDefCount>
0

> <AtomChiralUndefCount>
0

> <BondChiralCount>
1

> <BondChiralDefCount>
1

> <BondChiralUndefCount>
0

> <CID>
637511

> <CanonicalSmiles>
C1=CC=C(C=C1)C=CC=O

> <Complexity>
121

> <CovalentUnitCount>
1

> <CreateDate>
2004/09/16 00:00

> <HeavyAtomCount>
10

> <HydrogenBondAcceptorCount>
1

> <HydrogenBondDonorCount>
0

> <IUPACName>
(E)-3-phenylprop-2-enal

> <InChI>
InChI=1S/C9H8O/c10-8-4-7-9-5-2-1-3-6-9/h1-8H/b7-4+

> <InChIKey>
KJPRLNWUNMBNBZ-QPJJXVBHSA-N

> <IsomericSmiles>
C1=CC=C(C=C1)/C=C/C=O

> <IsotopeAtomCount>
0

> <MeSHHeading>
cinnamic aldehyde

> <MeSHTerm>
cinnamic aldehyde
supercinnamaldehyde
trans-3-phenylprop-2-enaldehyde
3-phenylprop-2-enaldehyde
beta-phenylacrolein
cinnamic aldehyde, (E)-isomer
cinnamaldehyde

> <MolecularFormula>
C9H8O

> <MolecularWeight>
132.16

> <PharmAction>
Flavoring Agents
Chemical Actions and Uses
Antimutagenic Agents
Pharmacologic Actions
Antineoplastic Agents, Phytogenic
Antineoplastic Agents
Food Additives
Therapeutic Uses
Pharmaceutic Aids
Food Ingredients
Pharmaceutical Preparations
Specialty Uses of Chemicals
Physiological Effects of Drugs
Protective Agents

> <RotatableBondCount>
2

> <Smiles>
O=C\C=C\c1ccccc1

> <SourceCategory>
Chemical Vendors
Legacy Depositors
Research and Development
Curation Efforts
Governmental Organizations
NIH Initiatives
Subscription Services
Journal Publishers

> <Synonym>
cinnamaldehyde
trans-Cinnamaldehyde
Cinnamic aldehyde
104-55-2
14371-10-9
3-Phenylacrylaldehyde
Cinnamal
(E)-Cinnamaldehyde
3-Phenylpropenal
(2E)-3-phenylprop-2-enal
Phenylacrolein
Zimtaldehyde
Cinnamylaldehyde
Cassia aldehyde
trans-Cinnamic aldehyde
(E)-3-Phenylpropenal
(E)-3-Phenyl-2-propenal
3-Phenylacrolein
Cinnemaldehyde
(E)-3-phenylprop-2-enal
Cinnamyl aldehyde
3-Phenyl-2-propenal
2-propenal, 3-phenyl-, (2E)-
Cinnamaldehyde, (E)-
trans-Cinnamylaldehyde
Benzylideneacetaldehyde
beta-Phenylcrolein
3-Phenyl-2-propenaldehyde
3-Phenyl-2-propen-1-al
Acrolein, 3-phenyl-
3-Fenylpropenal
Abion CA
2-Propenal, 3-phenyl-
(E)-Cinnamic aldehyde
Caswell No. 221A
3-phenylprop-2-enal
FEMA Number 2286
3-Fenylpropenal [Czech]
Aldehyd skoricovy [Czech]
NCI-C56111
UNII-SR60A3XG0F
trans-3-Phenyl-2-propenal
Cinnamic aldehyde (natural)
(2E)-3-phenylacrylaldehyde
Hefty Dog and Cat Repellent
FEMA No. 2286
CCRIS 3189
CCRIS 6222
HSDB 209
CHEBI:16731
trans-3-Phenylacrolein
2-Propenal, 3-phenyl-, (E)-
EINECS 203-213-9
MFCD00007000
NSC 16935
EPA Pesticide Chemical Code 040506
trans-Cinnamaldehyde, 99%
BRN 0605737
BRN 1071571
C9H8O
SR60A3XG0F
(2E)-3-Phenyl-2-propenal
AI3-00473
AI3-33275
CHEMBL293492
Aldehyd skoricovy
KJPRLNWUNMBNBZ-QPJJXVBHSA-N
NCGC00091512-04
DSSTox_CID_4834
WLN: VH1U1R
DSSTox_RID_77548
DSSTox_GSID_24834
trans-Cinnamaldehyde; trans-3-Phenylacrylaldehyde
cis-Cinnamic aldehyde
(Z)-Cinnamylaldehyde
beta-phenylacrolein
CAS-14371-10-9
Cinnamaldehyde [NF]
cinnamic aldehyde, (E)-isomer
e-cinnamaldehyde
transcinnamaldehyde
trans cinnamaldehyde
Nat. Cinnamaldehyde
CNMA
(trans)-cinnamaldehyde
trans cinnamic aldehyde
AC1LCUDE
Cinnamaldehyde, trans-
Cinnamaldehyde, Natural
3-phenyl-propen-2-al
(E)-3-Phenyl-propenal
AC1Q6BJW
AC1Q6PPL
(E)-phenylvinyl aldehyde
(E)-3-phenylacrylaldehyde
bmse010257
Epitope ID:150921
EC 203-213-9
trans-3-Phenylacrylaldehyde
Trans-Cinnamaldehyde ,(S)
SCHEMBL3441
(E)-3-phenyl-acrylaldehyde
3-Phenyl-(Z)-2-Propenal
Cinnamaldehyde (trans), neat
(3E)-3-phenylprop-2-enal
2-07-00-00273 (Beilstein Handbook Reference)
4-07-00-00984 (Beilstein Handbook Reference)
MLS002454394
CINNAMALDEHYDE (TRANS)
trans-Cinnamaldehyde, >=99%
2-propenal,3-phenyl-,(E)-
GTPL2423
(E)-cinnamaldehyde (incorrect)
NATURAL CINNAMIC ALDEHYDE
DTXSID6024834
trans-cinnamaldehyde (incorrect)
CHEBI:142921
HMS2268O08
NSC16935
NSC40346
ZINC1532777
Tox21_111144
Tox21_201804
Tox21_303271
BBL010378
BDBM50203065
LS-378
LS-850
NSC-16935
NSC-40346
SBB028652
STK397371
AKOS000119171
Cinnamaldehyde, natural, >=95%, FG
ACN-035400
RL00215
RTR-001003
NCGC00091512-01
NCGC00091512-02
NCGC00091512-05
NCGC00091512-06
NCGC00091512-07
NCGC00257017-01
NCGC00259353-01
trans-Cinnamaldehyde, analytical standard
AJ-26812
AN-24684
AS-12078
Cinnamaldehyde min. 98 %, for synthesis
CJ-24256
M181
SC-19143
SMR000112334
trans-Cinnamaldehyde, >=98%, FCC, FG
2-Propenal, 3-phenyl-, (E)- (9CI)
(E)-3-phenyl-2-propenal(E)-cinnamaldehyde
DB-003796
RT-001454
ST2407775
TR-001003
AM20060482
CS-0009609
N1482
ST24024694
ST50213393
A14480
C00903
Cinnamaldehyde, Vetec(TM) reagent grade, 93%
58840-EP2305682A1
58840-EP2308879A1
A801001
R501736
I14-7336
W-205597
B99DD6C7-1C6D-4FE3-A172-54BFDB987683
I14-109742
Cinnamaldehyde, United States Pharmacopeia (USP) Reference Standard
TRANS-CINNAMALDEHYDE (SEE ALSO CINNAMALDEHYDE (104-55-2))
CINNAMALDEHYDE (SEE ALSO TRANS-CINNAMALDEHYDE (14371-10-9))
InChI=1/C9H8O/c10-8-4-7-9-5-2-1-3-6-9/h1-8H/b7-4
9Y6

> <TPSA>
17.1

> <TotalAidCount>
1010

> <TotalFormalCharge>
0

> <XLogP>
1.9

> <database>
PubChem Compound

> <matchingCount>
176

> <primaryID>
637511

> <queryTranslation>
7628[CompoundID] OR 244[CompoundID] OR 25059[CompoundID] OR 7618[CompoundID] OR 7641[CompoundID] OR 5053[CompoundID] OR 637511[CompoundID] OR 7714[CompoundID] OR 7762[CompoundID] OR 25429[CompoundID]
OR 8842[CompoundID] OR 7794[CompoundID] OR 637566[CompoundID] OR 7843[CompoundID] OR 174[CompoundID] OR 7870[CompoundID] OR 86102[CompoundID] OR 7888[CompoundID] OR 7896[CompoundID] OR 1140[CompoundID
] OR 8042[CompoundID] OR 8058[CompoundID] OR 8078[CompoundID] OR 8087[CompoundID] OR 8117[CompoundID] OR 8133[CompoundID] OR 115224[CompoundID] OR 8175[CompoundID] OR 8194[CompoundID] OR 445639[Compou
ndID] OR 4944[CompoundID] OR 8294[CompoundID] OR 93541[CompoundID] OR 8360[CompoundID] OR 8363[CompoundID] OR 656612[CompoundID] OR 125098[CompoundID] OR 3352[CompoundID] OR 3303913[CompoundID] OR 648
05[CompoundID] OR 31200[CompoundID] OR 1712058[CompoundID] OR 31236[CompoundID] OR 31239[CompoundID] OR 31265[CompoundID] OR 31266[CompoundID] OR 31276[CompoundID] OR 6950273[CompoundID] OR 518659[Com
poundID] OR 14896[CompoundID] OR 14798[CompoundID] OR 14829[CompoundID] OR 14830[CompoundID] OR 8635[CompoundID] OR 23266[CompoundID] OR 4284[CompoundID] OR 8693[CompoundID] OR 22311[CompoundID] OR 87
59[CompoundID] OR 8785[CompoundID] OR 2723810[CompoundID] OR 8857[CompoundID] OR 3893[CompoundID] OR 9936739[CompoundID] OR 516892[CompoundID] OR 5430[CompoundID] OR 9017[CompoundID] OR 15433[Compound
ID] OR 107720[CompoundID] OR 9552081[CompoundID] OR 164825[CompoundID] OR 10275455[CompoundID] OR 16666[CompoundID] OR 9839306[CompoundID] OR 5282227[CompoundID] OR 23676745[CompoundID] OR 32881[Compo
undID] OR 91581[CompoundID] OR 39800[CompoundID] OR 33344[CompoundID] OR 15962220[CompoundID] OR 33528[CompoundID] OR 5365075[CompoundID] OR 62829[CompoundID] OR 162381[CompoundID] OR 517202[CompoundI
D] OR 6433353[CompoundID] OR 2730[CompoundID] OR 5372405[CompoundID] OR 36081[CompoundID] OR 3120[CompoundID] OR 3017[CompoundID] OR 2969[CompoundID] OR 18827[CompoundID] OR 19518[CompoundID] OR 19658
[CompoundID] OR 38283[CompoundID] OR 2758[CompoundID] OR 10112[CompoundID] OR 10340[CompoundID] OR 712[CompoundID] OR 5794[CompoundID] OR 3347[CompoundID] OR 104150[CompoundID] OR 2912[CompoundID] OR
2450[CompoundID] OR 40326[CompoundID] OR 40585[CompoundID] OR 517055[CompoundID] OR 10913[CompoundID] OR 108242[CompoundID] OR 62097[CompoundID] OR 41679[CompoundID] OR 54680676[CompoundID] OR 62118[C
ompoundID] OR 753[CompoundID] OR 1030[CompoundID] OR 23673837[CompoundID] OR 54678504[CompoundID] OR 11442[CompoundID] OR 11463[CompoundID] OR 22230[CompoundID] OR 440917[CompoundID] OR 6054[CompoundI
D] OR 43234[CompoundID] OR 22629[CompoundID] OR 3039[CompoundID] OR 2735067[CompoundID] OR 6144[CompoundID] OR 702[CompoundID] OR 284[CompoundID] OR 176[CompoundID] OR 91688[CompoundID] OR 22947[Compo
undID] OR 47445[CompoundID] OR 1711973[CompoundID] OR 243[CompoundID] OR 10342051[CompoundID] OR 5281875[CompoundID] OR 3776[CompoundID] OR 6224[CompoundID] OR 104926[CompoundID] OR 8755[CompoundID] O
R 338[CompoundID] OR 123622[CompoundID] OR 23954[CompoundID] OR 6334[CompoundID] OR 2537[CompoundID] OR 24261[CompoundID] OR 23665760[CompoundID] OR 83975[CompoundID] OR 784[CompoundID] OR 24437[Compo
undID] OR 5360315[CompoundID] OR 311[CompoundID] OR 6549[CompoundID] OR 107689[CompoundID] OR 17100[CompoundID] OR 24976875[CompoundID] OR 6654[CompoundID] OR 71245[CompoundID] OR 6442842[CompoundID]
OR 62334[CompoundID] OR 54698175[CompoundID] OR 6328154[CompoundID] OR 24762[CompoundID] OR 440950[CompoundID] OR 7017[CompoundID] OR 5281873[CompoundID] OR 323[CompoundID] OR 5281167[CompoundID] OR 7
175[CompoundID] OR 7292[CompoundID] OR 6335613[CompoundID] OR 7456[CompoundID] OR 7462[CompoundID]

> <resultIndex>
33

> <resultRange>
1-176

> <textQuery>
7628,244,25059,7618,7641,5053,637511,7714,7762,25429,8842,7794,637566,7843,174,7870,86102,7888,7896,1140,8042,8058,8078,8087,8117,8133,115224,8175,8194,445639,4944,8294,93541,8360,8363,656612,125098,3
352,3303913,64805,31200,1712058,31236,31239,31265,31266,31276,6950273,518659,14896,14798,14829,14830,8635,23266,4284,8693,22311,8759,8785,2723810,8857,3893,9936739,516892,5430,9017,15433,107720,955208
1,164825,10275455,16666,9839306,5282227,23676745,32881,91581,39800,33344,15962220,33528,5365075,62829,162381,517202,6433353,2730,5372405,36081,3120,3017,2969,18827,19518,19658,38283,2758,10112,10340,7
12,5794,3347,104150,2912,2450,40326,40585,517055,10913,108242,62097,41679,54680676,62118,753,1030,23673837,54678504,11442,11463,22230,440917,6054,43234,22629,3039,2735067,6144,702,284,176,91688,22947,
47445,1711973,243,10342051,5281875,3776,6224,104926,8755,338,123622,23954,6334,2537,24261,23665760,83975,784,24437,5360315,311,6549,107689,17100,24976875,6654,71245,6442842,62334,54698175,6328154,2476
2,440950,7017,5281873,323,5281167,7175,7292,6335613,7456,7462

$$$$
518,659
  SciTegic10191915303D

 21 20  0  0  1  0            999 V2000
    0.4670    3.1780   -0.5840 Cl  0  0
   -0.0550    2.2890    0.8710 C   0  0  3  0  0  0
    0.4550    3.0100    2.1190 C   0  0
   -0.1390    2.1680    3.5760 Cl  0  0
   -0.1390    4.6900    2.1190 Cl  0  0
    2.2380    3.0100    2.1190 Cl  0  0
    0.4330    0.8420    0.7850 C   0  0
   -0.2620    0.2030   -0.2620 O   0  0
    0.1090   -1.1450   -0.4360 C   0  0
   -0.7070   -1.7230   -1.5920 C   0  0  3  0  0  0
   -0.5630   -3.2380   -1.7170 C   0  0
   -1.1470   -4.0180   -0.2250 Cl  0  0
    1.1540   -3.6520   -1.9710 Cl  0  0
   -1.5240   -3.8150   -3.1040 Cl  0  0
   -0.2050   -0.9470   -3.1170 Cl  0  0
   -1.1430    2.3320    0.8180 H   0  0
    1.4980    0.8070    0.5570 H   0  0
    0.2170    0.3070    1.7110 H   0  0
    1.1740   -1.1780   -0.6620 H   0  0
   -0.1060   -1.6780    0.4920 H   0  0
   -1.7560   -1.4410   -1.5000 H   0  0
  1  2  1  0
  2  3  1  0
  2  7  1  0
  3  4  1  0
  3  5  1  0
  3  6  1  0
  7  8  1  0
  8  9  1  0
  9 10  1  0
 10 11  1  0
 10 15  1  0
 11 12  1  0
 11 13  1  0
 11 14  1  0
  2 16  1  0
  7 17  1  0
  7 18  1  0
  9 19  1  0
  9 20  1  0
 10 21  1  0
M  END
> <Name>
518,659

> <OBJECTID>
9223372182887006219

> <ActiveAidCount>
1

> <AtomChiralCount>
2

> <AtomChiralDefCount>
0

> <AtomChiralUndefCount>
2

> <BondChiralCount>
0

> <BondChiralDefCount>
0

> <BondChiralUndefCount>
0

> <CID>
518659

> <CanonicalSmiles>
C(C(C(Cl)(Cl)Cl)Cl)OCC(C(Cl)(Cl)Cl)Cl

> <Complexity>
165

> <CovalentUnitCount>
1

> <CreateDate>
2005/03/27 00:00

> <HeavyAtomCount>
15

> <HydrogenBondAcceptorCount>
1

> <HydrogenBondDonorCount>
0

> <IUPACName>
1,1,1,2-tetrachloro-3-(2,3,3,3-tetrachloropropoxy)propane

> <InChI>
InChI=1S/C6H6Cl8O/c7-3(5(9,10)11)1-15-2-4(8)6(12,13)14/h3-4H,1-2H2

> <InChIKey>
LNJXZKBHJZAIKQ-UHFFFAOYSA-N

> <IsomericSmiles>
C(C(C(Cl)(Cl)Cl)Cl)OCC(C(Cl)(Cl)Cl)Cl

> <IsotopeAtomCount>
0

> <MeSHHeading>
bis(2,3,3,3-tetrachloropropyl) ether

> <MeSHTerm>
S-421
bis(2,3,3,3-tetrachloropropyl) ether
S 421

> <MolecularFormula>
C6H6Cl8O

> <MolecularWeight>
377.7

> <RotatableBondCount>
4

> <Smiles>
ClC(COCC(Cl)C(Cl)(Cl)Cl)C(Cl)(Cl)Cl

> <SourceCategory>
Legacy Depositors
Chemical Vendors
Curation Efforts
Governmental Organizations
Subscription Services
Journal Publishers
Research and Development

> <Synonym>
Bis(2,3,3,3-tetrachloropropyl) ether
127-90-2
Octachlorodipropyl ether
S 421
Monsanto CP-16226
Octachlorodipropylether
ENT 25,456
Ether, bis(2,3,3,3-tetrachloropropyl)
bis(2,3,3,3-tetrachloropropyl)ether
Monsanto 16226
S-421
EINECS 204-870-4
1,1,1,2-tetrachloro-3-(2,3,3,3-tetrachloropropoxy)propane
BRN 1778336
AI3-25456
1,1'-Oxybis(2,3,3,3-tetrachloropropane)
Propane, 1,1'-oxybis(2,3,3,3-tetrachloro-
Propane, 1,1'-oxybis[2,3,3,3-tetrachloro-
C6H6Cl8O
CCRIS 8473
AC1LAQXB
Octachloro-di-n-propyl ether
4-01-00-01445 (Beilstein Handbook Reference)
ent25,456
SCHEMBL588740
Jsp001747
CTK8E5656
DTXSID40861778
LNJXZKBHJZAIKQ-UHFFFAOYSA-N
s421
S 421 10 microg/mL in Cyclohexane
AKOS015899545
VZ35831
bis-(2,3,3,3-Tetrachloropropyl)ether
ether,bis(2,3,3,3-tetrachloropropyl)
AN-43601
I942
LS-67746
TR-003971
FT-0603335
S 421, PESTANAL(R), analytical standard
127B902
A805765
C-21288
2,3,3,3,2',3',3',3'-Octachlorodipropyl Ether
J-005553
I14-11697
1,1 inverted exclamation mark -oxybis(2,3,3,3-tetrachloro-propane
1,1,1,2-tetrakis(chloranyl)-3-[2,3,3,3-tetrakis(chloranyl)propoxy]propane

> <TPSA>
9.2

> <TotalAidCount>
1

> <TotalFormalCharge>
0

> <XLogP>
5.1

> <database>
PubChem Compound

> <matchingCount>
176

> <primaryID>
518659

> <queryTranslation>
7628[CompoundID] OR 244[CompoundID] OR 25059[CompoundID] OR 7618[CompoundID] OR 7641[CompoundID] OR 5053[CompoundID] OR 637511[CompoundID] OR 7714[CompoundID] OR 7762[CompoundID] OR 25429[CompoundID]
OR 8842[CompoundID] OR 7794[CompoundID] OR 637566[CompoundID] OR 7843[CompoundID] OR 174[CompoundID] OR 7870[CompoundID] OR 86102[CompoundID] OR 7888[CompoundID] OR 7896[CompoundID] OR 1140[CompoundID
] OR 8042[CompoundID] OR 8058[CompoundID] OR 8078[CompoundID] OR 8087[CompoundID] OR 8117[CompoundID] OR 8133[CompoundID] OR 115224[CompoundID] OR 8175[CompoundID] OR 8194[CompoundID] OR 445639[Compou
ndID] OR 4944[CompoundID] OR 8294[CompoundID] OR 93541[CompoundID] OR 8360[CompoundID] OR 8363[CompoundID] OR 656612[CompoundID] OR 125098[CompoundID] OR 3352[CompoundID] OR 3303913[CompoundID] OR 648
05[CompoundID] OR 31200[CompoundID] OR 1712058[CompoundID] OR 31236[CompoundID] OR 31239[CompoundID] OR 31265[CompoundID] OR 31266[CompoundID] OR 31276[CompoundID] OR 6950273[CompoundID] OR 518659[Com
poundID] OR 14896[CompoundID] OR 14798[CompoundID] OR 14829[CompoundID] OR 14830[CompoundID] OR 8635[CompoundID] OR 23266[CompoundID] OR 4284[CompoundID] OR 8693[CompoundID] OR 22311[CompoundID] OR 87
59[CompoundID] OR 8785[CompoundID] OR 2723810[CompoundID] OR 8857[CompoundID] OR 3893[CompoundID] OR 9936739[CompoundID] OR 516892[CompoundID] OR 5430[CompoundID] OR 9017[CompoundID] OR 15433[Compound
ID] OR 107720[CompoundID] OR 9552081[CompoundID] OR 164825[CompoundID] OR 10275455[CompoundID] OR 16666[CompoundID] OR 9839306[CompoundID] OR 5282227[CompoundID] OR 23676745[CompoundID] OR 32881[Compo
undID] OR 91581[CompoundID] OR 39800[CompoundID] OR 33344[CompoundID] OR 15962220[CompoundID] OR 33528[CompoundID] OR 5365075[CompoundID] OR 62829[CompoundID] OR 162381[CompoundID] OR 517202[CompoundI
D] OR 6433353[CompoundID] OR 2730[CompoundID] OR 5372405[CompoundID] OR 36081[CompoundID] OR 3120[CompoundID] OR 3017[CompoundID] OR 2969[CompoundID] OR 18827[CompoundID] OR 19518[CompoundID] OR 19658
[CompoundID] OR 38283[CompoundID] OR 2758[CompoundID] OR 10112[CompoundID] OR 10340[CompoundID] OR 712[CompoundID] OR 5794[CompoundID] OR 3347[CompoundID] OR 104150[CompoundID] OR 2912[CompoundID] OR
2450[CompoundID] OR 40326[CompoundID] OR 40585[CompoundID] OR 517055[CompoundID] OR 10913[CompoundID] OR 108242[CompoundID] OR 62097[CompoundID] OR 41679[CompoundID] OR 54680676[CompoundID] OR 62118[C
ompoundID] OR 753[CompoundID] OR 1030[CompoundID] OR 23673837[CompoundID] OR 54678504[CompoundID] OR 11442[CompoundID] OR 11463[CompoundID] OR 22230[CompoundID] OR 440917[CompoundID] OR 6054[CompoundI
D] OR 43234[CompoundID] OR 22629[CompoundID] OR 3039[CompoundID] OR 2735067[CompoundID] OR 6144[CompoundID] OR 702[CompoundID] OR 284[CompoundID] OR 176[CompoundID] OR 91688[CompoundID] OR 22947[Compo
undID] OR 47445[CompoundID] OR 1711973[CompoundID] OR 243[CompoundID] OR 10342051[CompoundID] OR 5281875[CompoundID] OR 3776[CompoundID] OR 6224[CompoundID] OR 104926[CompoundID] OR 8755[CompoundID] O
R 338[CompoundID] OR 123622[CompoundID] OR 23954[CompoundID] OR 6334[CompoundID] OR 2537[CompoundID] OR 24261[CompoundID] OR 23665760[CompoundID] OR 83975[CompoundID] OR 784[CompoundID] OR 24437[Compo
undID] OR 5360315[CompoundID] OR 311[CompoundID] OR 6549[CompoundID] OR 107689[CompoundID] OR 17100[CompoundID] OR 24976875[CompoundID] OR 6654[CompoundID] OR 71245[CompoundID] OR 6442842[CompoundID]
OR 62334[CompoundID] OR 54698175[CompoundID] OR 6328154[CompoundID] OR 24762[CompoundID] OR 440950[CompoundID] OR 7017[CompoundID] OR 5281873[CompoundID] OR 323[CompoundID] OR 5281167[CompoundID] OR 7
175[CompoundID] OR 7292[CompoundID] OR 6335613[CompoundID] OR 7456[CompoundID] OR 7462[CompoundID]

> <resultIndex>
34

> <resultRange>
1-176

> <textQuery>
7628,244,25059,7618,7641,5053,637511,7714,7762,25429,8842,7794,637566,7843,174,7870,86102,7888,7896,1140,8042,8058,8078,8087,8117,8133,115224,8175,8194,445639,4944,8294,93541,8360,8363,656612,125098,3
352,3303913,64805,31200,1712058,31236,31239,31265,31266,31276,6950273,518659,14896,14798,14829,14830,8635,23266,4284,8693,22311,8759,8785,2723810,8857,3893,9936739,516892,5430,9017,15433,107720,955208
1,164825,10275455,16666,9839306,5282227,23676745,32881,91581,39800,33344,15962220,33528,5365075,62829,162381,517202,6433353,2730,5372405,36081,3120,3017,2969,18827,19518,19658,38283,2758,10112,10340,7
12,5794,3347,104150,2912,2450,40326,40585,517055,10913,108242,62097,41679,54680676,62118,753,1030,23673837,54678504,11442,11463,22230,440917,6054,43234,22629,3039,2735067,6144,702,284,176,91688,22947,
47445,1711973,243,10342051,5281875,3776,6224,104926,8755,338,123622,23954,6334,2537,24261,23665760,83975,784,24437,5360315,311,6549,107689,17100,24976875,6654,71245,6442842,62334,54698175,6328154,2476
2,440950,7017,5281873,323,5281167,7175,7292,6335613,7456,7462

$$$$
517,202
  SciTegic10191915303D

 11 11  0  0  0  0            999 V2000
   -1.5800    2.5430    0.1540 Cl  0  0
    2.9810   -0.4470    0.1560 Cl  0  0
    1.2760    1.9340    0.2890 O   0  0
   -2.7440   -0.1370   -0.2010 O   0  5
    0.9570   -2.5530   -0.2010 O   0  0
   -0.7690    0.9920    0.0510 N   0  0
    1.2370   -0.3140    0.0530 N   0  0
   -0.9180   -1.3200   -0.1990 N   0  0
    0.6190    0.9280    0.1390 C   0  0
   -1.5150   -0.1740   -0.1210 C   0  0
    0.4570   -1.4530   -0.1190 C   0  0
  1  6  1  0
  2  7  1  0
  3  9  2  0
  4 10  1  0
  5 11  2  0
  6  9  1  0
  6 10  1  0
  7  9  1  0
  7 11  1  0
  8 10  2  0
  8 11  1  0
M  CHG  1   4  -1
M  END
> <Name>
517,202

> <OBJECTID>
9223372187181973515

> <ActiveAidCount>
0

> <AtomChiralCount>
0

> <AtomChiralDefCount>
0

> <AtomChiralUndefCount>
0

> <BondChiralCount>
0

> <BondChiralDefCount>
0

> <BondChiralUndefCount>
0

> <CID>
517202

> <CanonicalSmiles>
C1(=NC(=O)N(C(=O)N1Cl)Cl)[O-].[Na+]

> <Complexity>
257

> <CovalentUnitCount>
2

> <CreateDate>
2005/03/27 00:00

> <HeavyAtomCount>
12

> <HydrogenBondAcceptorCount>
3

> <HydrogenBondDonorCount>
0

> <IUPACName>
sodium;1,5-dichloro-4,6-dioxo-1,3,5-triazin-2-olate

> <InChI>
InChI=1S/C3HCl2N3O3.Na/c4-7-1(9)6-2(10)8(5)3(7)11;/h(H,6,9,10);/q;+1/p-1

> <InChIKey>
MSFGZHUJTJBYFA-UHFFFAOYSA-M

> <IsomericSmiles>
C1(=NC(=O)N(C(=O)N1Cl)Cl)[O-].[Na+]

> <IsotopeAtomCount>
0

> <MeSHHeading>
troclosene

> <MeSHTerm>
Actichlor
dichloroisocyanuric acid
troclosene, sodium salt, dihydrate
Presept
chlordesine
troclosene
Dikon
potassium dichloro-s-triazinetrione
sodium dichloro-s-triazine-2,4,6(1H,3H,5H)-trione
Dikonit
Neoaquasept
chlordezine
chlorcyanurate
troclosene, sodium salt
troclosene, potassium salt
sodium dichloroisocyanurate

> <MolecularFormula>
C3Cl2N3NaO3

> <MolecularWeight>
219.94

> <PharmAction>
Antiviral Agents
Pharmacologic Actions
Chemical Actions and Uses
Specialty Uses of Chemicals
Anti-Infective Agents
Disinfectants
Therapeutic Uses
Antifungal Agents

> <RotatableBondCount>
0

> <Smiles>
ClN1C(=NC(N(C1=O)Cl)=O)[O-].[Na+]

> <SourceCategory>
Legacy Depositors
Chemical Vendors
Governmental Organizations
Subscription Services
Research and Development
Curation Efforts
Journal Publishers

> <Synonym>
Troclosene sodium
Dikonit
Simpla
Dimanin C
Dichloroisocyanuric acid, sodium salt
SDIC
Caswell No. 759
Fi Clor 60S
Sodium dichlorocyanurate
Sodium dichlorisocyanurate
Dichloroisocyanurate sodium
Dichloroisocyanuric acid sodium salt
2893-78-9
ACL 60
CCRIS 4788
CDB 63
OCI 56
Sodium dichloro-s-triazinetrione
HSDB 4235
NCI-C55732
EINECS 220-767-7
EPA Pesticide Chemical Code 081404
Sodium salt of dichloro-s-triazinetrione
CP 17254
Isocyanuric acid, dichloro-, sodium salt
Sodium salt of dichloro-s-triazine-2,4,6-trione
1-Sodium-3,5-dichloro-s-triazine-2,4,6-trione
UNII-07M9U9U0LK
MFCD00006036
1-Sodium-3,5-dichloro-1,3,5-triazine-2,4,6-trione
Dichlorosymtriazine-2,4,6(1H,3H,5H)trione sodium derivative
s-Triazine-2,4,6(1H,3H,5H)-trione, 1,3-dichloro-, sodium salt
sodium 1,5-dichloro-4,6-dioxo-1,3,5-triazin-2-olate
1,3,5-Triazine-2,4,6(1H,3H,5H)-trione, 1,3-dichloro-, sodium salt
EC 220-767-7
s-Triazine-2,4,6(1H,3H,5H)-trione, dichloro-, sodium salt
sodium 1,5-dichloro-4,6-dioxo-1,4,5,6-tetrahydro-1,3,5-triazin-2-olate
07M9U9U0LK
51580-86-0
Dichlorocyanuric acid, sodium salt
Klorsept (TN)
troclosene, sodium salt
1,3,5-Triazine-2,4,6(1H,3H,5H)-trione, 1,3-dichloro-, sodium salt (1:1)
AC1LAO6H
C3Cl2N3O3.Na
AKOS015955492
LS-1136
CC-34471
D08651
A819681
C-30500
sodium 1,5-bis(chloranyl)-4,6-bis(oxidanylidene)-1,3,5-triazin-2-olate

> <TPSA>
76

> <TotalAidCount>
1

> <TotalFormalCharge>
0

> <database>
PubChem Compound

> <matchingCount>
176

> <primaryID>
517202

> <queryTranslation>
7628[CompoundID] OR 244[CompoundID] OR 25059[CompoundID] OR 7618[CompoundID] OR 7641[CompoundID] OR 5053[CompoundID] OR 637511[CompoundID] OR 7714[CompoundID] OR 7762[CompoundID] OR 25429[CompoundID]
OR 8842[CompoundID] OR 7794[CompoundID] OR 637566[CompoundID] OR 7843[CompoundID] OR 174[CompoundID] OR 7870[CompoundID] OR 86102[CompoundID] OR 7888[CompoundID] OR 7896[CompoundID] OR 1140[CompoundID
] OR 8042[CompoundID] OR 8058[CompoundID] OR 8078[CompoundID] OR 8087[CompoundID] OR 8117[CompoundID] OR 8133[CompoundID] OR 115224[CompoundID] OR 8175[CompoundID] OR 8194[CompoundID] OR 445639[Compou
ndID] OR 4944[CompoundID] OR 8294[CompoundID] OR 93541[CompoundID] OR 8360[CompoundID] OR 8363[CompoundID] OR 656612[CompoundID] OR 125098[CompoundID] OR 3352[CompoundID] OR 3303913[CompoundID] OR 648
05[CompoundID] OR 31200[CompoundID] OR 1712058[CompoundID] OR 31236[CompoundID] OR 31239[CompoundID] OR 31265[CompoundID] OR 31266[CompoundID] OR 31276[CompoundID] OR 6950273[CompoundID] OR 518659[Com
poundID] OR 14896[CompoundID] OR 14798[CompoundID] OR 14829[CompoundID] OR 14830[CompoundID] OR 8635[CompoundID] OR 23266[CompoundID] OR 4284[CompoundID] OR 8693[CompoundID] OR 22311[CompoundID] OR 87
59[CompoundID] OR 8785[CompoundID] OR 2723810[CompoundID] OR 8857[CompoundID] OR 3893[CompoundID] OR 9936739[CompoundID] OR 516892[CompoundID] OR 5430[CompoundID] OR 9017[CompoundID] OR 15433[Compound
ID] OR 107720[CompoundID] OR 9552081[CompoundID] OR 164825[CompoundID] OR 10275455[CompoundID] OR 16666[CompoundID] OR 9839306[CompoundID] OR 5282227[CompoundID] OR 23676745[CompoundID] OR 32881[Compo
undID] OR 91581[CompoundID] OR 39800[CompoundID] OR 33344[CompoundID] OR 15962220[CompoundID] OR 33528[CompoundID] OR 5365075[CompoundID] OR 62829[CompoundID] OR 162381[CompoundID] OR 517202[CompoundI
D] OR 6433353[CompoundID] OR 2730[CompoundID] OR 5372405[CompoundID] OR 36081[CompoundID] OR 3120[CompoundID] OR 3017[CompoundID] OR 2969[CompoundID] OR 18827[CompoundID] OR 19518[CompoundID] OR 19658
[CompoundID] OR 38283[CompoundID] OR 2758[CompoundID] OR 10112[CompoundID] OR 10340[CompoundID] OR 712[CompoundID] OR 5794[CompoundID] OR 3347[CompoundID] OR 104150[CompoundID] OR 2912[CompoundID] OR
2450[CompoundID] OR 40326[CompoundID] OR 40585[CompoundID] OR 517055[CompoundID] OR 10913[CompoundID] OR 108242[CompoundID] OR 62097[CompoundID] OR 41679[CompoundID] OR 54680676[CompoundID] OR 62118[C
ompoundID] OR 753[CompoundID] OR 1030[CompoundID] OR 23673837[CompoundID] OR 54678504[CompoundID] OR 11442[CompoundID] OR 11463[CompoundID] OR 22230[CompoundID] OR 440917[CompoundID] OR 6054[CompoundI
D] OR 43234[CompoundID] OR 22629[CompoundID] OR 3039[CompoundID] OR 2735067[CompoundID] OR 6144[CompoundID] OR 702[CompoundID] OR 284[CompoundID] OR 176[CompoundID] OR 91688[CompoundID] OR 22947[Compo
undID] OR 47445[CompoundID] OR 1711973[CompoundID] OR 243[CompoundID] OR 10342051[CompoundID] OR 5281875[CompoundID] OR 3776[CompoundID] OR 6224[CompoundID] OR 104926[CompoundID] OR 8755[CompoundID] O
R 338[CompoundID] OR 123622[CompoundID] OR 23954[CompoundID] OR 6334[CompoundID] OR 2537[CompoundID] OR 24261[CompoundID] OR 23665760[CompoundID] OR 83975[CompoundID] OR 784[CompoundID] OR 24437[Compo
undID] OR 5360315[CompoundID] OR 311[CompoundID] OR 6549[CompoundID] OR 107689[CompoundID] OR 17100[CompoundID] OR 24976875[CompoundID] OR 6654[CompoundID] OR 71245[CompoundID] OR 6442842[CompoundID]
OR 62334[CompoundID] OR 54698175[CompoundID] OR 6328154[CompoundID] OR 24762[CompoundID] OR 440950[CompoundID] OR 7017[CompoundID] OR 5281873[CompoundID] OR 323[CompoundID] OR 5281167[CompoundID] OR 7
175[CompoundID] OR 7292[CompoundID] OR 6335613[CompoundID] OR 7456[CompoundID] OR 7462[CompoundID]

> <resultIndex>
35

> <resultRange>
1-176

> <textQuery>
7628,244,25059,7618,7641,5053,637511,7714,7762,25429,8842,7794,637566,7843,174,7870,86102,7888,7896,1140,8042,8058,8078,8087,8117,8133,115224,8175,8194,445639,4944,8294,93541,8360,8363,656612,125098,3
352,3303913,64805,31200,1712058,31236,31239,31265,31266,31276,6950273,518659,14896,14798,14829,14830,8635,23266,4284,8693,22311,8759,8785,2723810,8857,3893,9936739,516892,5430,9017,15433,107720,955208
1,164825,10275455,16666,9839306,5282227,23676745,32881,91581,39800,33344,15962220,33528,5365075,62829,162381,517202,6433353,2730,5372405,36081,3120,3017,2969,18827,19518,19658,38283,2758,10112,10340,7
12,5794,3347,104150,2912,2450,40326,40585,517055,10913,108242,62097,41679,54680676,62118,753,1030,23673837,54678504,11442,11463,22230,440917,6054,43234,22629,3039,2735067,6144,702,284,176,91688,22947,
47445,1711973,243,10342051,5281875,3776,6224,104926,8755,338,123622,23954,6334,2537,24261,23665760,83975,784,24437,5360315,311,6549,107689,17100,24976875,6654,71245,6442842,62334,54698175,6328154,2476
2,440950,7017,5281873,323,5281167,7175,7292,6335613,7456,7462

$$$$
517,055
  SciTegic10191915303D

 14 14  0  0  0  0            999 V2000
    0.3920    3.0920    0.0000 O   0  5
    1.1170    2.0950    0.0000 C   0  0
    2.3240    2.1600    0.0000 O   0  0
    0.4180    0.7770    0.0000 C   0  0
   -0.9880    0.7240    0.0000 C   0  0
   -1.6470   -0.5180    0.0000 C   0  0
   -0.9010   -1.7090    0.0000 C   0  0
    0.5040   -1.6590    0.0000 C   0  0
    1.1640   -0.4160    0.0000 C   0  0
   -1.5700    1.6350    0.0000 H   0  0
   -2.7270   -0.5570    0.0000 H   0  0
   -1.4060   -2.6640    0.0000 H   0  0
    1.0780   -2.5730    0.0000 H   0  0
    2.2420   -0.3870    0.0000 H   0  0
  1  2  1  0
  2  3  2  0
  2  4  1  0
  4  5  2  0
  4  9  1  0
  5  6  1  0
  6  7  2  0
  7  8  1  0
  8  9  2  0
  5 10  1  0
  6 11  1  0
  7 12  1  0
  8 13  1  0
  9 14  1  0
M  CHG  1   1  -1
M  END
> <Name>
517,055

> <OBJECTID>
9223372191476940811

> <ActiveAidCount>
4

> <AtomChiralCount>
0

> <AtomChiralDefCount>
0

> <AtomChiralUndefCount>
0

> <BondChiralCount>
0

> <BondChiralDefCount>
0

> <BondChiralUndefCount>
0

> <CID>
517055

> <CanonicalSmiles>
C1=CC=C(C=C1)C(=O)[O-].[Na+]

> <Complexity>
108

> <CovalentUnitCount>
2

> <CreateDate>
2005/03/27 00:00

> <HeavyAtomCount>
10

> <HydrogenBondAcceptorCount>
2

> <HydrogenBondDonorCount>
0

> <IUPACName>
sodium;benzoate

> <InChI>
InChI=1S/C7H6O2.Na/c8-7(9)6-4-2-1-3-5-6;/h1-5H,(H,8,9);/q;+1/p-1

> <InChIKey>
WXMKPNITSTVMEF-UHFFFAOYSA-M

> <IsomericSmiles>
C1=CC=C(C=C1)C(=O)[O-].[Na+]

> <IsotopeAtomCount>
0

> <MeSHHeading>
Sodium Benzoate

> <MeSHTerm>
Benzoate, Sodium
Sodium Benzoate

> <MolecularFormula>
C7H5NaO2

> <MolecularWeight>
144.1

> <PharmAction>
Chemical Actions and Uses
Food Ingredients
Therapeutic Uses
Food Preservatives
Food Additives
Anti-Infective Agents
Specialty Uses of Chemicals
Antifungal Agents
Pharmacologic Actions

> <RotatableBondCount>
1

> <Smiles>
[Na+].[O-]C(c1ccccc1)=O

> <SourceCategory>
Chemical Vendors
Legacy Depositors
Research and Development
Curation Efforts
Governmental Organizations
Subscription Services
Journal Publishers

> <Synonym>
sodium benzoate
532-32-1
Benzoic acid, sodium salt
Benzoic acid sodium salt
Sobenate
Antimol
Benzoate sodium
Benzoate of soda
Benzoate, sodium
Natrium benzoicum
Caswell No. 746
Benzoan sodny [Czech]
FEMA Number 3025
UNII-OJ245FE5EU
MFCD00012463
FEMA No. 3025
CCRIS 3921
HSDB 696
Benzoesaeure (na-salz) [German]
Sodium benzoate solution
Carboxybenzene sodium salt
EINECS 208-534-8
EPA Pesticide Chemical Code 009103
OJ245FE5EU
E211
sodium;benzoate
AI3-07835
Benzoic acid, sodium salt (1:1)
Sodiumbenzoate
Benzoan sodny
Sodium benzoate, 99+%, extra pure
Sodium benzoate, 99%, for biochemistry
Benzoesaeure (na-salz)
C7H5NaO2
Sodium benzoate [USAN:JAN]
BzONa
Sodium benzoate [USAN:JAN:NF]
benzoic acid sodium
Sodium Benzoate USP
NATRII BENZOAS
Sodium Benzoate,(S)
AC1LANVB
Sodium benzoate (TN)
SODIUM BENZONATE
PUROX S
BENZOTRON(R)
DSSTox_CID_140
E211, benzoate of soda
SCHEMBL823
ACMC-209l4v
EC 208-534-8
C7H5O2.Na
CHEMBL1356
DSSTox_RID_75393
DSSTox_GSID_20140
KSC271E6B
Sodium benzoate (JP17/NF)
AC1Q1V61
DTXSID1020140
CTK1H1260
FEMA 3025
CHEBI:113455
WXMKPNITSTVMEF-UHFFFAOYSA-M
LABOTEST-BB LTBB002151
Sodium Benzoate (Fragrance Grade)
RONACARE(R) SODIUM BENZOATE
KS-00000X0T
Tox21_300125
ANW-31661
LABOTEST-BB LT03328366
AKOS003053000
AKOS015890021
AS01250
LS-2390
RL03967
RTR-018824
TRA0071045
NCGC00254072-01
AK308412
AN-23553
CAS-532-32-1
SC-27055
AB1009551
TR-018824
FT-0645126
S0593
S0855
3860-EP2270007A1
3860-EP2270101A1
3860-EP2275105A1
3860-EP2275412A1
3860-EP2280009A1
3860-EP2287154A1
3860-EP2287160A1
3860-EP2289893A1
3860-EP2292611A1
3860-EP2295424A1
3860-EP2295426A1
3860-EP2295427A1
3860-EP2298735A1
3860-EP2298744A2
3860-EP2301924A1
3860-EP2301937A1
3860-EP2305673A1
3860-EP2305680A2
3860-EP2308877A1
3860-EP2311809A1
3860-EP2311821A1
3860-EP2311825A1
3860-EP2311834A1
3860-EP2311842A2
3860-EP2314575A1
3860-EP2314583A1
3860-EP2314584A1
D02277
A829462
I01-5022
J-519752

> <TPSA>
40.1

> <TotalAidCount>
232

> <TotalFormalCharge>
0

> <database>
PubChem Compound

> <matchingCount>
176

> <primaryID>
517055

> <queryTranslation>
7628[CompoundID] OR 244[CompoundID] OR 25059[CompoundID] OR 7618[CompoundID] OR 7641[CompoundID] OR 5053[CompoundID] OR 637511[CompoundID] OR 7714[CompoundID] OR 7762[CompoundID] OR 25429[CompoundID]
OR 8842[CompoundID] OR 7794[CompoundID] OR 637566[CompoundID] OR 7843[CompoundID] OR 174[CompoundID] OR 7870[CompoundID] OR 86102[CompoundID] OR 7888[CompoundID] OR 7896[CompoundID] OR 1140[CompoundID
] OR 8042[CompoundID] OR 8058[CompoundID] OR 8078[CompoundID] OR 8087[CompoundID] OR 8117[CompoundID] OR 8133[CompoundID] OR 115224[CompoundID] OR 8175[CompoundID] OR 8194[CompoundID] OR 445639[Compou
ndID] OR 4944[CompoundID] OR 8294[CompoundID] OR 93541[CompoundID] OR 8360[CompoundID] OR 8363[CompoundID] OR 656612[CompoundID] OR 125098[CompoundID] OR 3352[CompoundID] OR 3303913[CompoundID] OR 648
05[CompoundID] OR 31200[CompoundID] OR 1712058[CompoundID] OR 31236[CompoundID] OR 31239[CompoundID] OR 31265[CompoundID] OR 31266[CompoundID] OR 31276[CompoundID] OR 6950273[CompoundID] OR 518659[Com
poundID] OR 14896[CompoundID] OR 14798[CompoundID] OR 14829[CompoundID] OR 14830[CompoundID] OR 8635[CompoundID] OR 23266[CompoundID] OR 4284[CompoundID] OR 8693[CompoundID] OR 22311[CompoundID] OR 87
59[CompoundID] OR 8785[CompoundID] OR 2723810[CompoundID] OR 8857[CompoundID] OR 3893[CompoundID] OR 9936739[CompoundID] OR 516892[CompoundID] OR 5430[CompoundID] OR 9017[CompoundID] OR 15433[Compound
ID] OR 107720[CompoundID] OR 9552081[CompoundID] OR 164825[CompoundID] OR 10275455[CompoundID] OR 16666[CompoundID] OR 9839306[CompoundID] OR 5282227[CompoundID] OR 23676745[CompoundID] OR 32881[Compo
undID] OR 91581[CompoundID] OR 39800[CompoundID] OR 33344[CompoundID] OR 15962220[CompoundID] OR 33528[CompoundID] OR 5365075[CompoundID] OR 62829[CompoundID] OR 162381[CompoundID] OR 517202[CompoundI
D] OR 6433353[CompoundID] OR 2730[CompoundID] OR 5372405[CompoundID] OR 36081[CompoundID] OR 3120[CompoundID] OR 3017[CompoundID] OR 2969[CompoundID] OR 18827[CompoundID] OR 19518[CompoundID] OR 19658
[CompoundID] OR 38283[CompoundID] OR 2758[CompoundID] OR 10112[CompoundID] OR 10340[CompoundID] OR 712[CompoundID] OR 5794[CompoundID] OR 3347[CompoundID] OR 104150[CompoundID] OR 2912[CompoundID] OR
2450[CompoundID] OR 40326[CompoundID] OR 40585[CompoundID] OR 517055[CompoundID] OR 10913[CompoundID] OR 108242[CompoundID] OR 62097[CompoundID] OR 41679[CompoundID] OR 54680676[CompoundID] OR 62118[C
ompoundID] OR 753[CompoundID] OR 1030[CompoundID] OR 23673837[CompoundID] OR 54678504[CompoundID] OR 11442[CompoundID] OR 11463[CompoundID] OR 22230[CompoundID] OR 440917[CompoundID] OR 6054[CompoundI
D] OR 43234[CompoundID] OR 22629[CompoundID] OR 3039[CompoundID] OR 2735067[CompoundID] OR 6144[CompoundID] OR 702[CompoundID] OR 284[CompoundID] OR 176[CompoundID] OR 91688[CompoundID] OR 22947[Compo
undID] OR 47445[CompoundID] OR 1711973[CompoundID] OR 243[CompoundID] OR 10342051[CompoundID] OR 5281875[CompoundID] OR 3776[CompoundID] OR 6224[CompoundID] OR 104926[CompoundID] OR 8755[CompoundID] O
R 338[CompoundID] OR 123622[CompoundID] OR 23954[CompoundID] OR 6334[CompoundID] OR 2537[CompoundID] OR 24261[CompoundID] OR 23665760[CompoundID] OR 83975[CompoundID] OR 784[CompoundID] OR 24437[Compo
undID] OR 5360315[CompoundID] OR 311[CompoundID] OR 6549[CompoundID] OR 107689[CompoundID] OR 17100[CompoundID] OR 24976875[CompoundID] OR 6654[CompoundID] OR 71245[CompoundID] OR 6442842[CompoundID]
OR 62334[CompoundID] OR 54698175[CompoundID] OR 6328154[CompoundID] OR 24762[CompoundID] OR 440950[CompoundID] OR 7017[CompoundID] OR 5281873[CompoundID] OR 323[CompoundID] OR 5281167[CompoundID] OR 7
175[CompoundID] OR 7292[CompoundID] OR 6335613[CompoundID] OR 7456[CompoundID] OR 7462[CompoundID]

> <resultIndex>
36

> <resultRange>
1-176

> <textQuery>
7628,244,25059,7618,7641,5053,637511,7714,7762,25429,8842,7794,637566,7843,174,7870,86102,7888,7896,1140,8042,8058,8078,8087,8117,8133,115224,8175,8194,445639,4944,8294,93541,8360,8363,656612,125098,3
352,3303913,64805,31200,1712058,31236,31239,31265,31266,31276,6950273,518659,14896,14798,14829,14830,8635,23266,4284,8693,22311,8759,8785,2723810,8857,3893,9936739,516892,5430,9017,15433,107720,955208
1,164825,10275455,16666,9839306,5282227,23676745,32881,91581,39800,33344,15962220,33528,5365075,62829,162381,517202,6433353,2730,5372405,36081,3120,3017,2969,18827,19518,19658,38283,2758,10112,10340,7
12,5794,3347,104150,2912,2450,40326,40585,517055,10913,108242,62097,41679,54680676,62118,753,1030,23673837,54678504,11442,11463,22230,440917,6054,43234,22629,3039,2735067,6144,702,284,176,91688,22947,
47445,1711973,243,10342051,5281875,3776,6224,104926,8755,338,123622,23954,6334,2537,24261,23665760,83975,784,24437,5360315,311,6549,107689,17100,24976875,6654,71245,6442842,62334,54698175,6328154,2476
2,440950,7017,5281873,323,5281167,7175,7292,6335613,7456,7462

$$$$
516,892
  SciTegic10191915303D

  5  4  0  0  0  0            999 V2000
   -0.3590    0.8850    0.0000 O   0  0
    0.3810   -0.2210    0.0000 C   0  0
   -0.2890   -1.2520    0.0000 O   0  5
    1.5900   -0.2210    0.0000 O   0  0
   -1.3220    0.8090    0.0000 H   0  0
  1  2  1  0
  2  3  1  0
  2  4  2  0
  1  5  1  0
M  CHG  1   3  -1
M  END
> <Name>
516,892

> <OBJECTID>
9223372195771908107

> <ActiveAidCount>
8

> <AtomChiralCount>
0

> <AtomChiralDefCount>
0

> <AtomChiralUndefCount>
0

> <BondChiralCount>
0

> <BondChiralDefCount>
0

> <BondChiralUndefCount>
0

> <CID>
516892

> <CanonicalSmiles>
C(=O)(O)[O-].[Na+]

> <Complexity>
33.9

> <CovalentUnitCount>
2

> <CreateDate>
2005/03/27 00:00

> <HeavyAtomCount>
5

> <HydrogenBondAcceptorCount>
3

> <HydrogenBondDonorCount>
1

> <IUPACName>
sodium;hydrogen carbonate

> <InChI>
InChI=1S/CH2O3.Na/c2-1(3)4;/h(H2,2,3,4);/q;+1/p-1

> <InChIKey>
UIIMBOGNXHQVGW-UHFFFAOYSA-M

> <IsomericSmiles>
C(=O)(O)[O-].[Na+]

> <IsotopeAtomCount>
0

> <MeSHHeading>
Sodium Bicarbonate

> <MeSHTerm>
Sodium Bicarbonate
Soda, Baking
Hydrogen Carbonate, Sodium
Carbonic Acid Monosodium Salt
Baking Soda
Bicarbonate, Sodium
Sodium Hydrogen Carbonate

> <MolecularFormula>
CHNaO3

> <MolecularWeight>
84.007

> <RotatableBondCount>
0

> <Smiles>
[Na+].OC(=O)[O-]

> <SourceCategory>
Legacy Depositors
Chemical Vendors
Research and Development
Curation Efforts
Governmental Organizations
Subscription Services
Journal Publishers

> <Synonym>
SODIUM BICARBONATE
Sodium hydrogen carbonate
144-55-8
Baking soda
Sodium hydrogencarbonate
Carbonic acid monosodium salt
Sodium acid carbonate
Bicarbonate of soda
Meylon
Acidosan
Neut
Sodium hydrocarbonate
Natron
Natriumhydrogenkarbonat
Col-evac
Sel De vichy
Monosodium carbonate
Natrium bicarbonicum
Soda (van)
Jusonin
Soludal
NaHCO3
Natrii hydrogencarbonas
Monosodium hydrogen carbonate
Soda Mint
Natrium hydrogencarbonicum
Carbonic acid sodium salt (1:1)
Sodium bicarbonate (1:1)
Caswell No. 747
MFCD00003528
Carbonic acid, monosodium salt
Sodium carbonate (Na(HCO3))
sodiumbicarbonate
UNII-8MDF5V39QO
Sodium bicarbonate in plastic container
CCRIS 3064
HSDB 697
EINECS 205-633-8
EPA Pesticide Chemical Code 073505
NSC 134031
8MDF5V39QO
CHEBI:32139
E500
sodium hydrogen-carbonate
Colovage
Glycoprep
Golytely
Nulytely
Gripe water
Peg-lyte
Go-evac
Sodium bicarbonate, 99+%, for HPLC
Co-lav
Sodium bicarbonate, 99+%, extra pure
BSS plus
Natrum bicarbonicum
Sodium bicarbonate, 99.5%, for analysis
Meylon (TN)
Sodium bicarbonate, 99.7+%, ACS reagent
E-Z-EM Prep Lyte
Sodium bicarbonate [USAN:JAN]
Sodium bicarbonate, 99.5%, for biochemistry
Neut (TN)
Hema BP-38
Sandoz sodium bicarbonate
nahcolita
Sodium bicarbonate [USP:JAN]
800 Sodium Bicarbonate Powder
sodium bicabonate
sodium bicarbonat
bicarbonate sodium
sodium bicarbonata
sodiumbi-carbonate
sodium bi-carbonate
sodium bicarbonate-
Sodium bi carbonate
Sodium bicarbonate liquid concentrate
natriumhydrogencarbonat
CHNaO3
sodium hydrogencabonate
sodium hydrogencarbonat
AC1LANJA
sodiumhydrogen carbonate
PubChem23592
sodium hydrogen cabonate
ACMC-20ajp0
hydrogen carbonate sodium
Sodium bicarbonate, USP
sodium hyd-rogencarbonate
sodium-hydrogen-carbonate
SODIUM BICARBONIATE
EC 205-633-8
AC1Q1W5G
CHEMBL1353
KSC175M0P
DTXSID9021269
CTK0H5607
KS-00000WCP
Sodium bicarbonate (JP17/USP)
UIIMBOGNXHQVGW-UHFFFAOYSA-M
Sodium bicarbonate, Biochemical Grade
AKOS015836321
AKOS015951222
DB01390
LS-2380
RP18407
RTR-005643
Sodium bicarbonate A.C.S. reagent grade
Sodium hydrogen carbonate, Puratronic(R)
S304
SC-27096
Bicarbonate, 1M buffer solution, pH 8.0
Bicarbonate, 1M buffer solution, pH 8.5
AB1009420
TR-005643
B7292
E 500
E-500
FT-0645108
S0561
C12603
D01203
Sodium bicarbonate, 1M buffer solution, pH 8.0
Sodium bicarbonate, 1M buffer solution, pH 9.0
Sodium bicarbonate, 1M buffer solution, pH 10.0
Sodium bicarbonate, HPLC, Meets ACS Specifications
Sodium bicarbonate 5% w/v solution in water (+/- 0.3%)

> <TPSA>
60.4

> <TotalAidCount>
160

> <TotalFormalCharge>
0

> <database>
PubChem Compound

> <matchingCount>
176

> <primaryID>
516892

> <queryTranslation>
7628[CompoundID] OR 244[CompoundID] OR 25059[CompoundID] OR 7618[CompoundID] OR 7641[CompoundID] OR 5053[CompoundID] OR 637511[CompoundID] OR 7714[CompoundID] OR 7762[CompoundID] OR 25429[CompoundID]
OR 8842[CompoundID] OR 7794[CompoundID] OR 637566[CompoundID] OR 7843[CompoundID] OR 174[CompoundID] OR 7870[CompoundID] OR 86102[CompoundID] OR 7888[CompoundID] OR 7896[CompoundID] OR 1140[CompoundID
] OR 8042[CompoundID] OR 8058[CompoundID] OR 8078[CompoundID] OR 8087[CompoundID] OR 8117[CompoundID] OR 8133[CompoundID] OR 115224[CompoundID] OR 8175[CompoundID] OR 8194[CompoundID] OR 445639[Compou
ndID] OR 4944[CompoundID] OR 8294[CompoundID] OR 93541[CompoundID] OR 8360[CompoundID] OR 8363[CompoundID] OR 656612[CompoundID] OR 125098[CompoundID] OR 3352[CompoundID] OR 3303913[CompoundID] OR 648
05[CompoundID] OR 31200[CompoundID] OR 1712058[CompoundID] OR 31236[CompoundID] OR 31239[CompoundID] OR 31265[CompoundID] OR 31266[CompoundID] OR 31276[CompoundID] OR 6950273[CompoundID] OR 518659[Com
poundID] OR 14896[CompoundID] OR 14798[CompoundID] OR 14829[CompoundID] OR 14830[CompoundID] OR 8635[CompoundID] OR 23266[CompoundID] OR 4284[CompoundID] OR 8693[CompoundID] OR 22311[CompoundID] OR 87
59[CompoundID] OR 8785[CompoundID] OR 2723810[CompoundID] OR 8857[CompoundID] OR 3893[CompoundID] OR 9936739[CompoundID] OR 516892[CompoundID] OR 5430[CompoundID] OR 9017[CompoundID] OR 15433[Compound
ID] OR 107720[CompoundID] OR 9552081[CompoundID] OR 164825[CompoundID] OR 10275455[CompoundID] OR 16666[CompoundID] OR 9839306[CompoundID] OR 5282227[CompoundID] OR 23676745[CompoundID] OR 32881[Compo
undID] OR 91581[CompoundID] OR 39800[CompoundID] OR 33344[CompoundID] OR 15962220[CompoundID] OR 33528[CompoundID] OR 5365075[CompoundID] OR 62829[CompoundID] OR 162381[CompoundID] OR 517202[CompoundI
D] OR 6433353[CompoundID] OR 2730[CompoundID] OR 5372405[CompoundID] OR 36081[CompoundID] OR 3120[CompoundID] OR 3017[CompoundID] OR 2969[CompoundID] OR 18827[CompoundID] OR 19518[CompoundID] OR 19658
[CompoundID] OR 38283[CompoundID] OR 2758[CompoundID] OR 10112[CompoundID] OR 10340[CompoundID] OR 712[CompoundID] OR 5794[CompoundID] OR 3347[CompoundID] OR 104150[CompoundID] OR 2912[CompoundID] OR
2450[CompoundID] OR 40326[CompoundID] OR 40585[CompoundID] OR 517055[CompoundID] OR 10913[CompoundID] OR 108242[CompoundID] OR 62097[CompoundID] OR 41679[CompoundID] OR 54680676[CompoundID] OR 62118[C
ompoundID] OR 753[CompoundID] OR 1030[CompoundID] OR 23673837[CompoundID] OR 54678504[CompoundID] OR 11442[CompoundID] OR 11463[CompoundID] OR 22230[CompoundID] OR 440917[CompoundID] OR 6054[CompoundI
D] OR 43234[CompoundID] OR 22629[CompoundID] OR 3039[CompoundID] OR 2735067[CompoundID] OR 6144[CompoundID] OR 702[CompoundID] OR 284[CompoundID] OR 176[CompoundID] OR 91688[CompoundID] OR 22947[Compo
undID] OR 47445[CompoundID] OR 1711973[CompoundID] OR 243[CompoundID] OR 10342051[CompoundID] OR 5281875[CompoundID] OR 3776[CompoundID] OR 6224[CompoundID] OR 104926[CompoundID] OR 8755[CompoundID] O
R 338[CompoundID] OR 123622[CompoundID] OR 23954[CompoundID] OR 6334[CompoundID] OR 2537[CompoundID] OR 24261[CompoundID] OR 23665760[CompoundID] OR 83975[CompoundID] OR 784[CompoundID] OR 24437[Compo
undID] OR 5360315[CompoundID] OR 311[CompoundID] OR 6549[CompoundID] OR 107689[CompoundID] OR 17100[CompoundID] OR 24976875[CompoundID] OR 6654[CompoundID] OR 71245[CompoundID] OR 6442842[CompoundID]
OR 62334[CompoundID] OR 54698175[CompoundID] OR 6328154[CompoundID] OR 24762[CompoundID] OR 440950[CompoundID] OR 7017[CompoundID] OR 5281873[CompoundID] OR 323[CompoundID] OR 5281167[CompoundID] OR 7
175[CompoundID] OR 7292[CompoundID] OR 6335613[CompoundID] OR 7456[CompoundID] OR 7462[CompoundID]

> <resultIndex>
37

> <resultRange>
1-176

> <textQuery>
7628,244,25059,7618,7641,5053,637511,7714,7762,25429,8842,7794,637566,7843,174,7870,86102,7888,7896,1140,8042,8058,8078,8087,8117,8133,115224,8175,8194,445639,4944,8294,93541,8360,8363,656612,125098,3
352,3303913,64805,31200,1712058,31236,31239,31265,31266,31276,6950273,518659,14896,14798,14829,14830,8635,23266,4284,8693,22311,8759,8785,2723810,8857,3893,9936739,516892,5430,9017,15433,107720,955208
1,164825,10275455,16666,9839306,5282227,23676745,32881,91581,39800,33344,15962220,33528,5365075,62829,162381,517202,6433353,2730,5372405,36081,3120,3017,2969,18827,19518,19658,38283,2758,10112,10340,7
12,5794,3347,104150,2912,2450,40326,40585,517055,10913,108242,62097,41679,54680676,62118,753,1030,23673837,54678504,11442,11463,22230,440917,6054,43234,22629,3039,2735067,6144,702,284,176,91688,22947,
47445,1711973,243,10342051,5281875,3776,6224,104926,8755,338,123622,23954,6334,2537,24261,23665760,83975,784,24437,5360315,311,6549,107689,17100,24976875,6654,71245,6442842,62334,54698175,6328154,2476
2,440950,7017,5281873,323,5281167,7175,7292,6335613,7456,7462

$$$$
445,639
  SciTegic10191915303D

 54 53  0  0  0  0            999 V2000
    5.4200    8.2950   -1.9120 O   0  0
    7.4730    7.4470   -1.6190 O   0  0
    6.1450    7.3790   -1.6040 C   0  0
    5.5760    6.0550   -1.1700 C   0  0
    4.0490    6.0390   -1.1930 C   0  0
    3.4650    4.6900   -0.7750 C   0  0
    1.9360    4.6760   -0.7950 C   0  0
    1.3540    3.3260   -0.3750 C   0  0
   -0.1760    3.3130   -0.3950 C   0  0
   -0.7600    1.9610    0.0180 C   0  0
   -2.2630    1.9610    0.0180 C   0  0
   -2.9040    0.7790    0.0180 C   0  0
   -2.0860   -0.4820    0.0180 C   0  0
   -2.9040   -1.7090    0.4240 C   0  0
   -2.0840   -3.0000    0.3980 C   0  0
   -2.9000   -4.2250    0.8110 C   0  0
   -2.0800   -5.5160    0.7870 C   0  0
   -2.8960   -6.7400    1.1970 C   0  0
   -2.0760   -8.0310    1.1740 C   0  0
   -2.8920   -9.2560    1.5840 C   0  0
    7.9010    8.2700   -1.8890 H   0  0
    5.8970    5.2700   -1.8550 H   0  0
    5.9500    5.8010   -0.1760 H   0  0
    3.6450    6.8420   -0.5760 H   0  0
    3.6760    6.3320   -2.1760 H   0  0
    3.8660    3.8870   -1.3970 H   0  0
    3.8420    4.3950    0.2050 H   0  0
    1.5370    5.4770   -0.1740 H   0  0
    1.5610    4.9710   -1.7730 H   0  0
    1.7520    2.5240   -0.9960 H   0  0
    1.7290    3.0310    0.6040 H   0  0
   -0.5760    4.1110    0.2300 H   0  0
   -0.5530    3.6110   -1.3730 H   0  0
   -0.3880    1.7680    1.0250 H   0  0
   -0.3880    1.1660   -0.6310 H   0  0
   -2.7440    2.9280    0.0180 H   0  0
   -3.9840    0.8400    0.0180 H   0  0
   -1.7170   -0.6860   -0.9880 H   0  0
   -1.2210   -0.3630    0.6720 H   0  0
   -3.3610   -1.5610    1.4020 H   0  0
   -3.7910   -1.8050   -0.2030 H   0  0
   -1.6310   -3.1480   -0.5800 H   0  0
   -1.1930   -2.9020    1.0210 H   0  0
   -3.3530   -4.0740    1.7910 H   0  0
   -3.7890   -4.3220    0.1880 H   0  0
   -1.6270   -5.6660   -0.1930 H   0  0
   -1.1890   -5.4180    1.4080 H   0  0
   -3.3490   -6.5900    2.1780 H   0  0
   -3.7850   -6.8380    0.5740 H   0  0
   -1.6210   -8.1820    0.1930 H   0  0
   -1.1870   -7.9340    1.7970 H   0  0
   -2.2850  -10.1600    1.5290 H   0  0
   -3.2730   -9.1450    2.6000 H   0  0
   -3.7460   -9.3910    0.9200 H   0  0
  1  3  2  0
  2  3  1  0
  3  4  1  0
  4  5  1  0
  5  6  1  0
  6  7  1  0
  7  8  1  0
  8  9  1  0
  9 10  1  0
 10 11  1  0
 11 12  2  0
 12 13  1  0
 13 14  1  0
 14 15  1  0
 15 16  1  0
 16 17  1  0
 17 18  1  0
 18 19  1  0
 19 20  1  0
  2 21  1  0
  4 22  1  0
  4 23  1  0
  5 24  1  0
  5 25  1  0
  6 26  1  0
  6 27  1  0
  7 28  1  0
  7 29  1  0
  8 30  1  0
  8 31  1  0
  9 32  1  0
  9 33  1  0
 10 34  1  0
 10 35  1  0
 11 36  1  0
 12 37  1  0
 13 38  1  0
 13 39  1  0
 14 40  1  0
 14 41  1  0
 15 42  1  0
 15 43  1  0
 16 44  1  0
 16 45  1  0
 17 46  1  0
 17 47  1  0
 18 48  1  0
 18 49  1  0
 19 50  1  0
 19 51  1  0
 20 52  1  0
 20 53  1  0
 20 54  1  0
M  END
> <Name>
445,639

> <OBJECTID>
9223372200066875403

> <ActiveAidCount>
49

> <AtomChiralCount>
0

> <AtomChiralDefCount>
0

> <AtomChiralUndefCount>
0

> <BondChiralCount>
1

> <BondChiralDefCount>
1

> <BondChiralUndefCount>
0

> <CID>
445639

> <CanonicalSmiles>
CCCCCCCCC=CCCCCCCCC(=O)O

> <Complexity>
234

> <CovalentUnitCount>
1

> <CreateDate>
2004/09/16 00:00

> <HeavyAtomCount>
20

> <HydrogenBondAcceptorCount>
2

> <HydrogenBondDonorCount>
1

> <IUPACName>
(Z)-octadec-9-enoic acid

> <InChI>
InChI=1S/C18H34O2/c1-2-3-4-5-6-7-8-9-10-11-12-13-14-15-16-17-18(19)20/h9-10H,2-8,11-17H2,1H3,(H,19,20)/b10-9-

> <InChIKey>
ZQPPMHVWECSIRJ-KTKRTIGZSA-N

> <IsomericSmiles>
CCCCCCCC/C=C\CCCCCCCC(=O)O

> <IsotopeAtomCount>
0

> <MeSHHeading>
Oleic Acid

> <MeSHTerm>
9-Octadecenoic Acid
Oleic Acid
Oleate
9 Octadecenoic Acid
cis 9 Octadecenoic Acid
cis-9-Octadecenoic Acid

> <MolecularFormula>
C18H34O2

> <MolecularWeight>
282.5

> <RotatableBondCount>
15

> <Smiles>
O=C(CCCCCCC\C=C/CCCCCCCC)O

> <SourceCategory>
Chemical Vendors
Research and Development
Legacy Depositors
Curation Efforts
Governmental Organizations
NIH Initiatives
Subscription Services
Journal Publishers

> <Synonym>
oleic acid
cis-9-Octadecenoic acid
112-80-1
cis-Oleic acid
Elaidoic acid
oleate
Glycon wo
Wecoline OO
Pamolyn 100
Glycon RO
(Z)-Octadec-9-enoic acid
Metaupon
Oelsauere
Vopcolene 27
Groco 5l
Groco 2
Groco 4
Groco 6
Tego-oleic 130
Emersol 211
Industrene 105
Industrene 205
Industrene 206
Pamolyn
Z-9-Octadecenoic acid
Oleinic acid
Emersol 210
Emersol 213
L'Acide oleique
cis-Octadec-9-enoic acid
Century cd fatty acid
Emersol 6321
Extraolein 90
Oleine 7503
9-Octadecenoic acid (Z)-
Elainic acid
Emersol 205
Emersol 233LL
Hy-phi 1055
Hy-phi 1088
Hy-phi 2066
Hy-phi 2088
Hy-phi 2102
Priolene 6906
White oleic acid
Wochem no. 320
Emersol 220 white oleic acid
Extra Oleic 80R
Extra Oleic 90
Extra Oleic 99
Extra Olein 80
Extra Olein 90R
Lunac O-CA
Lunac O-LL
Lunac O-P
neo-Fat 92-04
Priolene 6907
Priolene 6928
Priolene 6930
Priolene 6933
9Z-Octadecenoic acid
Emersol 6313NF
delta9-cis-Oleic acid
9-Octadecenoic acid (9Z)-
9-Octadecenoic acid, (Z)-
9-octadecenoic acid
(9Z)-Octadecenoic acid
FEMA Number 2815
Oleic acid, pure
D 100 (fatty acid)
Emersol 221 low titer white oleic acid
K 52
(9Z)-octadec-9-enoic acid
Caswell No. 619
Oleic acid (natural)
Wecoline OO (VAN)
FEMA No. 2815
Oelsaeure
Acide oleique [French]
cis-Oleate
Elaic acid
HSDB 1240
l'Acide oleique [French]
UNII-2UMI9U37CP
D 100
CCRIS 682
Oleic acid [NF]
Emersol 233
NAA 35
18:1Delta9cis
CHEBI:16196
cis-delta(sup 9)-Octadecenoic acid
NSC 9856
9,10-Octadecenoic acid
EINECS 204-007-1
MFCD00064242
neo-Fat 90-04
.delta.9-cis-Oleic acid
9-(Z)-octadecenoic acid
(Z)-9-Octadecanoic acid
EPA Pesticide Chemical Code 031702
9-Octadecenoic acid, cis-
cis-.delta.9-Octadecenoate
(9Z)-9-Octadecenoic acid
BRN 1726542
2UMI9U37CP
CHEMBL8659
AI3-01291
cis-.delta.9-Octadecenoic acid
cis-Delta(9)-octadecenoic acid
Red oil
NSC9856
ZQPPMHVWECSIRJ-KTKRTIGZSA-N
Oleic acid (NF)
C18:1n-9
Oleic acid, 97%
C18:1 n-9
Octadec-9-enoic acid
NCGC00091119-02
18:1 n-9
C18:1
cis-9-octadecenoate
(9Z)- Octadecenoic acid
DSSTox_CID_5809
DSSTox_RID_77930
DSSTox_GSID_25809
(Z)-octadec-9-enoate
Acide oleique
cis-delta9-octadecenoic acid
CAS-112-80-1
SMR000326739
9-cis-Octadecenoic acid
Sulfurized oleic acid
Sulphurized oleic acid
Oleic acid, sulfurized
9-Octadecenoic acid (9Z)-, sulfurized
Distoline
Oleinate
oleaic acid
1gni
1hms
1vyf
2lkk
Lunac OA
Edenor ATiO5
Edenor FTiO5
Industrene 104
Z-9-Octadecenoate
EINECS 270-164-8
9-octadecylenic acid
Oleic acid, p.a.
Emersol 213NF
Emersol 214NF
OLEICACID
Pamolyn 125
Priolene 6900
9,10-Octadecenoate
9-Octadecenoic acid (Z)-, sulfurized
Oleic acid (8CI)
oleic acid extra pure
cis-Octadec-9-enoate
Pamolyn 100 FG
Pamolyn 100 FGK
9-(Z)-octadecenoate
Emersol 7021
(Z)-9-Octadecanoate
Emersol 6313 NF
Emersol 6333 NF
PubChem24077
Oleic acid-9,10-t
(9Z)-9-Octadecenoate
z-octadeca-9-enoic acid
AC1L9IBL
Oleic Acid-Water Soluble
Epitope ID:187036
Oleic acid, natural, FCC
(9Z)octadec-9-enoic acid
Emersol 220 White Oleate
Oleic acid, technical grade
SCHEMBL1138
Delta9-cis-Octadecenoic acid
WLN: QV8U9-C
4-02-00-01641 (Beilstein Handbook Reference)
68412-07-7
MLS001056779
MLS002153498
MLS002454427
9-octadecenoic acid, (9Z)-
(9Z)-9-Octadecenoic acid #
GTPL1054
Oleic acid, analytical standard
DTXSID1025809
Oleic acid, >=93% (GC)
Oleic acid, >=99% (GC)
REGID_for_CID_445639
Oleic Acid CCyclodextrin Complex
1g74
s158
cis-| currency9-Octadecenoic acid
HMS2234O13
HMS3649H21
Oleic acid, technical grade, 90%
HY-N1446
NSC-9856
ZINC6845860
Tox21_111086
Tox21_201967
Tox21_303324
BDBM50150484
HSCI1_000362
LMFA01030002
LS-560
s4707
SBB058695
9-Octadecenoic acid (9Z)- (9CI)
cis-9-Octadecenoic-9,10-3H2 acid
Emersol 221 Low Titer White Oleate
AKOS017343225
cis-.delta.(sup 9)-Octadecenoic acid
FA 18:1
RL00518
9-Octadecenoic-9,10-t2 acid, (Z)-
NCGC00091119-01
NCGC00091119-03
NCGC00257233-01
NCGC00259516-01
AK187813
AN-22719
AS-16066
BP-24023
CC-33313
SC-19057
Oleic acid, SAJ first grade, >=70.0%
Oleic acid, Selectophore(TM), >=99.0%
CS-0016886
O0011
O0180
ST24031497
C00712
D02315
K-0971
Oleic acid, from suet, natural, >=60% (GC)
AB00641912_08
9-Octadecenoic-9,10-t2 acid, (9Z)- (9CI)
Oleic acid, suitable for cell culture, BioReagent
SR-01000780573
SR-01000780573-6
F0001-0262
Oleic acid, certified reference material, TraceCERT(R)
Oleic acid, European Pharmacopoeia (EP) Reference Standard
UNII-13FB83DEYU component ZQPPMHVWECSIRJ-KTKRTIGZSA-N
UNII-44NH37HHP9 component ZQPPMHVWECSIRJ-KTKRTIGZSA-N
UNII-5U9XZ261ER component ZQPPMHVWECSIRJ-KTKRTIGZSA-N
UNII-7N137Q0QYJ component ZQPPMHVWECSIRJ-KTKRTIGZSA-N
UNII-96GS7P39SN component ZQPPMHVWECSIRJ-KTKRTIGZSA-N
UNII-9B22238JYI component ZQPPMHVWECSIRJ-KTKRTIGZSA-N
UNII-B6G0Y5Z616 component ZQPPMHVWECSIRJ-KTKRTIGZSA-N
UNII-HBA528N3PW component ZQPPMHVWECSIRJ-KTKRTIGZSA-N
UNII-MO7HV04S9Y component ZQPPMHVWECSIRJ-KTKRTIGZSA-N
UNII-ODL221H4AM component ZQPPMHVWECSIRJ-KTKRTIGZSA-N
UNII-UDR641JW8W component ZQPPMHVWECSIRJ-KTKRTIGZSA-N
UNII-V1PY73ZXPE component ZQPPMHVWECSIRJ-KTKRTIGZSA-N
459CE4C0-C836-4249-8E2D-69874B714E9C
UNII-79P21R4317 component ZQPPMHVWECSIRJ-KTKRTIGZSA-N
Oleic acid, United States Pharmacopeia (USP) Reference Standard
Oleic acid, meets analytical specification of Ph, Eur., 65.0-88.0% (GC)
Oleic Acid, Pharmaceutical Secondary Standard; Certified Reference Material
Oleic Acid-Water Soluble, powder, BioReagent, suitable for cell culture
A6L
Oleic acid compound with (2R,3R,4S)-2-((R)-1,2-dihydroxyethyl)tetrahydrofuran-3,4-diol (1
Oleic acid, PharmaGrade, Manufactured under appropriate controls for use as raw material in pharma or biopharmaceutical production.

> <TPSA>
37.3

> <TotalAidCount>
1187

> <TotalFormalCharge>
0

> <XLogP>
6.5

> <database>
PubChem Compound

> <matchingCount>
176

> <primaryID>
445639

> <queryTranslation>
7628[CompoundID] OR 244[CompoundID] OR 25059[CompoundID] OR 7618[CompoundID] OR 7641[CompoundID] OR 5053[CompoundID] OR 637511[CompoundID] OR 7714[CompoundID] OR 7762[CompoundID] OR 25429[CompoundID]
OR 8842[CompoundID] OR 7794[CompoundID] OR 637566[CompoundID] OR 7843[CompoundID] OR 174[CompoundID] OR 7870[CompoundID] OR 86102[CompoundID] OR 7888[CompoundID] OR 7896[CompoundID] OR 1140[CompoundID
] OR 8042[CompoundID] OR 8058[CompoundID] OR 8078[CompoundID] OR 8087[CompoundID] OR 8117[CompoundID] OR 8133[CompoundID] OR 115224[CompoundID] OR 8175[CompoundID] OR 8194[CompoundID] OR 445639[Compou
ndID] OR 4944[CompoundID] OR 8294[CompoundID] OR 93541[CompoundID] OR 8360[CompoundID] OR 8363[CompoundID] OR 656612[CompoundID] OR 125098[CompoundID] OR 3352[CompoundID] OR 3303913[CompoundID] OR 648
05[CompoundID] OR 31200[CompoundID] OR 1712058[CompoundID] OR 31236[CompoundID] OR 31239[CompoundID] OR 31265[CompoundID] OR 31266[CompoundID] OR 31276[CompoundID] OR 6950273[CompoundID] OR 518659[Com
poundID] OR 14896[CompoundID] OR 14798[CompoundID] OR 14829[CompoundID] OR 14830[CompoundID] OR 8635[CompoundID] OR 23266[CompoundID] OR 4284[CompoundID] OR 8693[CompoundID] OR 22311[CompoundID] OR 87
59[CompoundID] OR 8785[CompoundID] OR 2723810[CompoundID] OR 8857[CompoundID] OR 3893[CompoundID] OR 9936739[CompoundID] OR 516892[CompoundID] OR 5430[CompoundID] OR 9017[CompoundID] OR 15433[Compound
ID] OR 107720[CompoundID] OR 9552081[CompoundID] OR 164825[CompoundID] OR 10275455[CompoundID] OR 16666[CompoundID] OR 9839306[CompoundID] OR 5282227[CompoundID] OR 23676745[CompoundID] OR 32881[Compo
undID] OR 91581[CompoundID] OR 39800[CompoundID] OR 33344[CompoundID] OR 15962220[CompoundID] OR 33528[CompoundID] OR 5365075[CompoundID] OR 62829[CompoundID] OR 162381[CompoundID] OR 517202[CompoundI
D] OR 6433353[CompoundID] OR 2730[CompoundID] OR 5372405[CompoundID] OR 36081[CompoundID] OR 3120[CompoundID] OR 3017[CompoundID] OR 2969[CompoundID] OR 18827[CompoundID] OR 19518[CompoundID] OR 19658
[CompoundID] OR 38283[CompoundID] OR 2758[CompoundID] OR 10112[CompoundID] OR 10340[CompoundID] OR 712[CompoundID] OR 5794[CompoundID] OR 3347[CompoundID] OR 104150[CompoundID] OR 2912[CompoundID] OR
2450[CompoundID] OR 40326[CompoundID] OR 40585[CompoundID] OR 517055[CompoundID] OR 10913[CompoundID] OR 108242[CompoundID] OR 62097[CompoundID] OR 41679[CompoundID] OR 54680676[CompoundID] OR 62118[C
ompoundID] OR 753[CompoundID] OR 1030[CompoundID] OR 23673837[CompoundID] OR 54678504[CompoundID] OR 11442[CompoundID] OR 11463[CompoundID] OR 22230[CompoundID] OR 440917[CompoundID] OR 6054[CompoundI
D] OR 43234[CompoundID] OR 22629[CompoundID] OR 3039[CompoundID] OR 2735067[CompoundID] OR 6144[CompoundID] OR 702[CompoundID] OR 284[CompoundID] OR 176[CompoundID] OR 91688[CompoundID] OR 22947[Compo
undID] OR 47445[CompoundID] OR 1711973[CompoundID] OR 243[CompoundID] OR 10342051[CompoundID] OR 5281875[CompoundID] OR 3776[CompoundID] OR 6224[CompoundID] OR 104926[CompoundID] OR 8755[CompoundID] O
R 338[CompoundID] OR 123622[CompoundID] OR 23954[CompoundID] OR 6334[CompoundID] OR 2537[CompoundID] OR 24261[CompoundID] OR 23665760[CompoundID] OR 83975[CompoundID] OR 784[CompoundID] OR 24437[Compo
undID] OR 5360315[CompoundID] OR 311[CompoundID] OR 6549[CompoundID] OR 107689[CompoundID] OR 17100[CompoundID] OR 24976875[CompoundID] OR 6654[CompoundID] OR 71245[CompoundID] OR 6442842[CompoundID]
OR 62334[CompoundID] OR 54698175[CompoundID] OR 6328154[CompoundID] OR 24762[CompoundID] OR 440950[CompoundID] OR 7017[CompoundID] OR 5281873[CompoundID] OR 323[CompoundID] OR 5281167[CompoundID] OR 7
175[CompoundID] OR 7292[CompoundID] OR 6335613[CompoundID] OR 7456[CompoundID] OR 7462[CompoundID]

> <resultIndex>
38

> <resultRange>
1-176

> <textQuery>
7628,244,25059,7618,7641,5053,637511,7714,7762,25429,8842,7794,637566,7843,174,7870,86102,7888,7896,1140,8042,8058,8078,8087,8117,8133,115224,8175,8194,445639,4944,8294,93541,8360,8363,656612,125098,3
352,3303913,64805,31200,1712058,31236,31239,31265,31266,31276,6950273,518659,14896,14798,14829,14830,8635,23266,4284,8693,22311,8759,8785,2723810,8857,3893,9936739,516892,5430,9017,15433,107720,955208
1,164825,10275455,16666,9839306,5282227,23676745,32881,91581,39800,33344,15962220,33528,5365075,62829,162381,517202,6433353,2730,5372405,36081,3120,3017,2969,18827,19518,19658,38283,2758,10112,10340,7
12,5794,3347,104150,2912,2450,40326,40585,517055,10913,108242,62097,41679,54680676,62118,753,1030,23673837,54678504,11442,11463,22230,440917,6054,43234,22629,3039,2735067,6144,702,284,176,91688,22947,
47445,1711973,243,10342051,5281875,3776,6224,104926,8755,338,123622,23954,6334,2537,24261,23665760,83975,784,24437,5360315,311,6549,107689,17100,24976875,6654,71245,6442842,62334,54698175,6328154,2476
2,440950,7017,5281873,323,5281167,7175,7292,6335613,7456,7462

$$$$
440,950
  SciTegic10191915303D

 66 68  0  0  1  0            999 V2000
    1.0490   -0.2540   -0.6150 O   0  0
   -1.0060    1.4390    1.8770 O   0  0
    1.4000   -2.4490   -1.2070 O   0  0
   -2.0330    1.8160    3.9800 O   0  0
    1.6860   -4.1620   -4.4530 O   0  0
   -0.8340   -1.2640    2.9320 O   0  0
   -0.4900   -3.2460    0.8360 O   0  0
    0.3890   -0.5120   -3.3830 O   0  0
    0.5800    3.1050    4.6780 O   0  0
   -1.0450    4.5040    1.7690 O   0  0
   -2.0120    4.5210    5.2540 O   0  0
    3.3300   -1.7370   -4.9380 O   0  0
    1.0610    2.3610   -1.6510 O   0  0
   -0.0490   -2.9750   -5.4360 O   0  0
    2.6760   -6.1120   -2.7050 O   0  0
   -4.0820    1.4350    2.2250 O   0  0
   -0.1030    0.4610    1.3920 C   0  0  1  0  0  0
   -0.7190   -0.9450    1.5550 C   0  0  1  0  0  0
    0.1720   -1.9900    0.8460 C   0  0  2  0  0  0
    0.2150    0.7690   -0.0880 C   0  0  1  0  0  0
    0.4810   -1.5570   -0.6100 C   0  0  1  0  0  0
    1.1490   -2.6600   -2.5860 C   0  0  1  0  0  0
   -0.8110    1.7520    3.2440 C   0  0  2  0  0  0
    1.5120   -1.3750   -3.3750 C   0  0  1  0  0  0
    1.9750   -3.8650   -3.0860 C   0  0  1  0  0  0
    0.0140    3.0600    3.3810 C   0  0  1  0  0  0
   -0.8240    4.3400    3.1580 C   0  0  2  0  0  0
   -2.1950    4.2710    3.8710 C   0  0  1  0  0  0
    1.9160   -1.7050   -4.8360 C   0  0  2  0  0  0
   -2.9120    2.9100    3.6910 C   0  0  1  0  0  0
    0.9650    2.0940   -0.2700 C   0  0
    1.3580   -3.0690   -5.3170 C   0  0  1  0  0  0
    1.7230   -5.1560   -2.3010 C   0  0
   -3.5370    2.7340    2.3010 C   0  0
   -1.6970   -0.9380    3.2300 H   0  0
   -0.4260   -3.6100    1.7320 H   0  0
    0.6720    0.3200   -3.7930 H   0  0
    1.2190    2.3770    4.7380 H   0  0
   -0.2010    4.7850    1.3770 H   0  0
   -2.8930    4.6290    5.6440 H   0  0
    3.6490   -0.8320   -4.7850 H   0  0
    1.5370    3.2010   -1.7460 H   0  0
   -0.3550   -3.7970   -5.8500 H   0  0
    2.5020   -6.9220   -2.1990 H   0  0
   -4.4730    1.3420    1.3400 H   0  0
    0.8130    0.5410    1.9840 H   0  0
   -1.7230   -0.9610    1.1230 H   0  0
    1.1070   -2.1170    1.3980 H   0  0
   -0.6990    0.7910   -0.6820 H   0  0
   -0.4200   -1.5430   -1.2250 H   0  0
    0.0860   -2.8990   -2.6780 H   0  0
   -0.2480    0.9080    3.6460 H   0  0
    2.3110   -0.8170   -2.8790 H   0  0
    3.0350   -3.6210   -3.0290 H   0  0
    0.8710    3.0410    2.7050 H   0  0
   -0.2690    5.2300    3.4650 H   0  0
   -2.8460    5.0760    3.5230 H   0  0
    1.6090   -0.9120   -5.5220 H   0  0
   -3.7300    2.8320    4.4080 H   0  0
    1.9770    2.0210    0.1330 H   0  0
    0.4200    2.9140    0.1990 H   0  0
    1.7250   -3.3210   -6.3130 H   0  0
    0.7310   -5.5530   -2.5200 H   0  0
    1.8440   -4.9870   -1.2310 H   0  0
   -4.3440    3.4510    2.1480 H   0  0
   -2.7790    2.8300    1.5230 H   0  0
  1 20  1  0
  1 21  1  0
 17  2  1  0
 23  2  1  0
 21  3  1  0
 22  3  1  0
  4 23  1  0
  4 30  1  0
  5 25  1  0
  5 32  1  0
 18  6  1  0
 19  7  1  0
 24  8  1  0
 26  9  1  0
 27 10  1  0
 28 11  1  0
 29 12  1  0
 13 31  1  0
 32 14  1  0
 15 33  1  0
 16 34  1  0
 17 18  1  0
 17 20  1  0
 18 19  1  0
 19 21  1  0
 20 31  1  0
 22 24  1  0
 22 25  1  0
 23 26  1  0
 24 29  1  0
 25 33  1  0
 26 27  1  0
 27 28  1  0
 28 30  1  0
 29 32  1  0
 30 34  1  0
  6 35  1  0
  7 36  1  0
  8 37  1  0
  9 38  1  0
 10 39  1  0
 11 40  1  0
 12 41  1  0
 13 42  1  0
 14 43  1  0
 15 44  1  0
 16 45  1  0
 17 46  1  0
 18 47  1  0
 19 48  1  0
 20 49  1  0
 21 50  1  0
 22 51  1  0
 23 52  1  0
 24 53  1  0
 25 54  1  0
 26 55  1  0
 27 56  1  0
 28 57  1  0
 29 58  1  0
 30 59  1  0
 31 60  1  0
 31 61  1  0
 32 62  1  0
 33 63  1  0
 33 64  1  0
 34 65  1  0
 34 66  1  0
M  END
> <Name>
440,950

> <OBJECTID>
9223372204361842699

> <ActiveAidCount>
0

> <AtomChiralCount>
15

> <AtomChiralDefCount>
15

> <AtomChiralUndefCount>
0

> <BondChiralCount>
0

> <BondChiralDefCount>
0

> <BondChiralUndefCount>
0

> <CID>
440950

> <CanonicalSmiles>
C(C1C(C(C(C(O1)OC2C(OC(C(C2O)O)OC3C(OC(C(C3O)O)O)CO)CO)O)O)O)O

> <Complexity>
641

> <CovalentUnitCount>
1

> <CreateDate>
2005/06/24 00:00

> <HeavyAtomCount>
34

> <HydrogenBondAcceptorCount>
16

> <HydrogenBondDonorCount>
11

> <IUPACName>
(2S,3R,4S,5S,6R)-2-[(2R,3S,4R,5R,6S)-4,5-dihydroxy-2-(hydroxymethyl)-6-[(2R,3S,4R,5R,6R)-4,5,6-trihydroxy-2-(hydroxymethyl)oxan-3-yl]oxyoxan-3-yl]oxy-6-(hydroxymethyl)oxane-3,4,5-triol

> <InChI>
InChI=1S/C18H32O16/c19-1-4-7(22)8(23)12(27)17(31-4)34-15-6(3-21)32-18(13(28)10(15)25)33-14-5(2-20)30-16(29)11(26)9(14)24/h4-29H,1-3H2/t4-,5-,6-,7-,8+,9-,10-,11-,12-,13-,14-,15-,16-,17+,18+/m1/s1

> <InChIKey>
FYGDTMLNYKFZSV-CSHPIKHBSA-N

> <IsomericSmiles>
C([C@@H]1[C@H]([C@@H]([C@H]([C@@H](O1)O[C@@H]2[C@H](O[C@H]([C@@H]([C@H]2O)O)O[C@@H]3[C@H](O[C@H]([C@@H]([C@H]3O)O)O)CO)CO)O)O)O)O

> <IsotopeAtomCount>
0

> <MeSHHeading>
rayon, purified
Cellulase

> <MeSHTerm>
Endoglucanase A
Endo 1,4 beta Glucanase
Endoglucanase Y
Endoglucanase
Endoglucanase C
rayon, purified
regenerated cellulose
Endoglucanase E
cellulose, regenerated
rayon
beta-1,4-Glucan-4-Glucanohydrolase
viscose fiber
Cellulase
Cellulysin
Endo-1,4-beta-Glucanase
beta 1,4 Glucan 4 Glucanohydrolase
Endoglucanase IV

> <MolecularFormula>
C18H32O16

> <MolecularWeight>
504.4

> <RotatableBondCount>
7

> <Smiles>
O1[C@H]([C@@H]([C@H]([C@@H]([C@H]1CO)O[C@H]2[C@@H]([C@H]([C@@H]([C@@H](CO)O2)O)O)O)O)O)O[C@H]([C@H]3CO)[C@@H]([C@H]([C@H](O)O3)O)O

> <SourceCategory>
Curation Efforts
Research and Development
Governmental Organizations
Subscription Services
Legacy Depositors
Chemical Vendors
Journal Publishers

> <Synonym>
beta-cellotriose
Cellulase
Beta-D-Glucopyranosyl-(1->4)-Beta-D-Glucopyranosyl-(1->4)-Beta-D-Glucopyranose
Rayon
Viscose fiber
Rayon, purified
CT3
Rayon, purified [USAN]
UNII-BX81F82EWG
AC1L9A9A
BX81F82EWG
CHEBI:41753
CTR
ZINC8220386
BGC-(1-4)BGC-(1-4)BGC
DB01697
GLC-(1-4)GLC-(1-4)GLC
GLC-(4-1)BGC-(4-1)BGC
61788-77-0
W-110244
WURCS=2.0/1,3,2/[a2122h-1b_1-5]/1-1-1/a4-b1_b4-c1
(2S,3R,4S,5S,6R)-2-[(2R,3S,4R,5R,6S)-4,5-dihydroxy-2-(hydroxymethyl)-6-[(2R,3S,4R,5R,6R)-4,5,6-trihydroxy-2-(hydroxymethyl)oxan-3-yl]oxyoxan-3-yl]oxy-6-(hydroxymethyl)oxane-3,4,5-triol

> <TPSA>
269

> <TotalAidCount>
0

> <TotalFormalCharge>
0

> <XLogP>
-6.9

> <database>
PubChem Compound

> <matchingCount>
176

> <primaryID>
440950

> <queryTranslation>
7628[CompoundID] OR 244[CompoundID] OR 25059[CompoundID] OR 7618[CompoundID] OR 7641[CompoundID] OR 5053[CompoundID] OR 637511[CompoundID] OR 7714[CompoundID] OR 7762[CompoundID] OR 25429[CompoundID]
OR 8842[CompoundID] OR 7794[CompoundID] OR 637566[CompoundID] OR 7843[CompoundID] OR 174[CompoundID] OR 7870[CompoundID] OR 86102[CompoundID] OR 7888[CompoundID] OR 7896[CompoundID] OR 1140[CompoundID
] OR 8042[CompoundID] OR 8058[CompoundID] OR 8078[CompoundID] OR 8087[CompoundID] OR 8117[CompoundID] OR 8133[CompoundID] OR 115224[CompoundID] OR 8175[CompoundID] OR 8194[CompoundID] OR 445639[Compou
ndID] OR 4944[CompoundID] OR 8294[CompoundID] OR 93541[CompoundID] OR 8360[CompoundID] OR 8363[CompoundID] OR 656612[CompoundID] OR 125098[CompoundID] OR 3352[CompoundID] OR 3303913[CompoundID] OR 648
05[CompoundID] OR 31200[CompoundID] OR 1712058[CompoundID] OR 31236[CompoundID] OR 31239[CompoundID] OR 31265[CompoundID] OR 31266[CompoundID] OR 31276[CompoundID] OR 6950273[CompoundID] OR 518659[Com
poundID] OR 14896[CompoundID] OR 14798[CompoundID] OR 14829[CompoundID] OR 14830[CompoundID] OR 8635[CompoundID] OR 23266[CompoundID] OR 4284[CompoundID] OR 8693[CompoundID] OR 22311[CompoundID] OR 87
59[CompoundID] OR 8785[CompoundID] OR 2723810[CompoundID] OR 8857[CompoundID] OR 3893[CompoundID] OR 9936739[CompoundID] OR 516892[CompoundID] OR 5430[CompoundID] OR 9017[CompoundID] OR 15433[Compound
ID] OR 107720[CompoundID] OR 9552081[CompoundID] OR 164825[CompoundID] OR 10275455[CompoundID] OR 16666[CompoundID] OR 9839306[CompoundID] OR 5282227[CompoundID] OR 23676745[CompoundID] OR 32881[Compo
undID] OR 91581[CompoundID] OR 39800[CompoundID] OR 33344[CompoundID] OR 15962220[CompoundID] OR 33528[CompoundID] OR 5365075[CompoundID] OR 62829[CompoundID] OR 162381[CompoundID] OR 517202[CompoundI
D] OR 6433353[CompoundID] OR 2730[CompoundID] OR 5372405[CompoundID] OR 36081[CompoundID] OR 3120[CompoundID] OR 3017[CompoundID] OR 2969[CompoundID] OR 18827[CompoundID] OR 19518[CompoundID] OR 19658
[CompoundID] OR 38283[CompoundID] OR 2758[CompoundID] OR 10112[CompoundID] OR 10340[CompoundID] OR 712[CompoundID] OR 5794[CompoundID] OR 3347[CompoundID] OR 104150[CompoundID] OR 2912[CompoundID] OR
2450[CompoundID] OR 40326[CompoundID] OR 40585[CompoundID] OR 517055[CompoundID] OR 10913[CompoundID] OR 108242[CompoundID] OR 62097[CompoundID] OR 41679[CompoundID] OR 54680676[CompoundID] OR 62118[C
ompoundID] OR 753[CompoundID] OR 1030[CompoundID] OR 23673837[CompoundID] OR 54678504[CompoundID] OR 11442[CompoundID] OR 11463[CompoundID] OR 22230[CompoundID] OR 440917[CompoundID] OR 6054[CompoundI
D] OR 43234[CompoundID] OR 22629[CompoundID] OR 3039[CompoundID] OR 2735067[CompoundID] OR 6144[CompoundID] OR 702[CompoundID] OR 284[CompoundID] OR 176[CompoundID] OR 91688[CompoundID] OR 22947[Compo
undID] OR 47445[CompoundID] OR 1711973[CompoundID] OR 243[CompoundID] OR 10342051[CompoundID] OR 5281875[CompoundID] OR 3776[CompoundID] OR 6224[CompoundID] OR 104926[CompoundID] OR 8755[CompoundID] O
R 338[CompoundID] OR 123622[CompoundID] OR 23954[CompoundID] OR 6334[CompoundID] OR 2537[CompoundID] OR 24261[CompoundID] OR 23665760[CompoundID] OR 83975[CompoundID] OR 784[CompoundID] OR 24437[Compo
undID] OR 5360315[CompoundID] OR 311[CompoundID] OR 6549[CompoundID] OR 107689[CompoundID] OR 17100[CompoundID] OR 24976875[CompoundID] OR 6654[CompoundID] OR 71245[CompoundID] OR 6442842[CompoundID]
OR 62334[CompoundID] OR 54698175[CompoundID] OR 6328154[CompoundID] OR 24762[CompoundID] OR 440950[CompoundID] OR 7017[CompoundID] OR 5281873[CompoundID] OR 323[CompoundID] OR 5281167[CompoundID] OR 7
175[CompoundID] OR 7292[CompoundID] OR 6335613[CompoundID] OR 7456[CompoundID] OR 7462[CompoundID]

> <resultIndex>
39

> <resultRange>
1-176

> <textQuery>
7628,244,25059,7618,7641,5053,637511,7714,7762,25429,8842,7794,637566,7843,174,7870,86102,7888,7896,1140,8042,8058,8078,8087,8117,8133,115224,8175,8194,445639,4944,8294,93541,8360,8363,656612,125098,3
352,3303913,64805,31200,1712058,31236,31239,31265,31266,31276,6950273,518659,14896,14798,14829,14830,8635,23266,4284,8693,22311,8759,8785,2723810,8857,3893,9936739,516892,5430,9017,15433,107720,955208
1,164825,10275455,16666,9839306,5282227,23676745,32881,91581,39800,33344,15962220,33528,5365075,62829,162381,517202,6433353,2730,5372405,36081,3120,3017,2969,18827,19518,19658,38283,2758,10112,10340,7
12,5794,3347,104150,2912,2450,40326,40585,517055,10913,108242,62097,41679,54680676,62118,753,1030,23673837,54678504,11442,11463,22230,440917,6054,43234,22629,3039,2735067,6144,702,284,176,91688,22947,
47445,1711973,243,10342051,5281875,3776,6224,104926,8755,338,123622,23954,6334,2537,24261,23665760,83975,784,24437,5360315,311,6549,107689,17100,24976875,6654,71245,6442842,62334,54698175,6328154,2476
2,440950,7017,5281873,323,5281167,7175,7292,6335613,7456,7462

$$$$
440,917
  SciTegic10191915303D

 26 26  0  0  1  0            999 V2000
    0.7270    0.7830   -0.4840 C   0  0  1  0  0  0
    1.5310    1.2400    0.7090 C   0  0
    1.0180   -0.7010   -0.8380 C   0  0
   -0.7750    1.0980   -0.2750 C   0  0
   -1.3790   -1.2910   -0.6150 C   0  0
   -0.0920   -1.6740   -0.5060 C   0  0
   -1.6970    0.1270   -1.0240 C   0  0
    2.3220    2.3160    0.5720 C   0  0
    1.4900    0.5430    2.0430 C   0  0
   -2.5060   -2.2480   -0.3220 C   0  0
    1.0640    1.3770   -1.3340 H   0  0
    1.1930   -0.7700   -1.9140 H   0  0
    1.9450   -1.0430   -0.3770 H   0  0
   -1.0250    1.0450    0.7850 H   0  0
   -0.9860    2.1250   -0.5800 H   0  0
    0.1560   -2.6740   -0.1840 H   0  0
   -2.7420    0.3550   -0.8050 H   0  0
   -1.5660    0.2320   -2.1000 H   0  0
    2.9570    2.7580    1.3280 H   0  0
    2.3110    2.7790   -0.4040 H   0  0
    1.6170    1.2720    2.8440 H   0  0
    0.5550   -0.0060    2.1440 H   0  0
    2.3070   -0.1740    2.1110 H   0  0
   -2.2730   -2.9670    0.4650 H   0  0
   -2.7580   -2.8110   -1.2230 H   0  0
   -3.3930   -1.6930   -0.0160 H   0  0
  1  2  1  0
  1  3  1  0
  1  4  1  0
  2  8  2  0
  2  9  1  0
  3  6  1  0
  4  7  1  0
  5  6  2  0
  5  7  1  0
  5 10  1  0
  1 11  1  0
  3 12  1  0
  3 13  1  0
  4 14  1  0
  4 15  1  0
  6 16  1  0
  7 17  1  0
  7 18  1  0
  8 19  1  0
  8 20  1  0
  9 21  1  0
  9 22  1  0
  9 23  1  0
 10 24  1  0
 10 25  1  0
 10 26  1  0
M  END
> <Name>
440,917

> <OBJECTID>
9223372208656809995

> <ActiveAidCount>
9

> <AtomChiralCount>
1

> <AtomChiralDefCount>
1

> <AtomChiralUndefCount>
0

> <BondChiralCount>
0

> <BondChiralDefCount>
0

> <BondChiralUndefCount>
0

> <CID>
440917

> <CanonicalSmiles>
CC1=CCC(CC1)C(=C)C

> <Complexity>
163

> <CovalentUnitCount>
1

> <CreateDate>
2004/09/16 00:00

> <HeavyAtomCount>
10

> <HydrogenBondAcceptorCount>
0

> <HydrogenBondDonorCount>
0

> <IUPACName>
(4R)-1-methyl-4-prop-1-en-2-ylcyclohexene

> <InChI>
InChI=1S/C10H16/c1-8(2)10-6-4-9(3)5-7-10/h4,10H,1,5-7H2,2-3H3/t10-/m0/s1

> <InChIKey>
XMGQYMWWDOXHJM-JTQLQIEISA-N

> <IsomericSmiles>
CC1=CC[C@@H](CC1)C(=C)C

> <IsotopeAtomCount>
0

> <MeSHHeading>
Limonene

> <MeSHTerm>
(+)-(R)-4-isopropenyl-1-methylcyclohexene
(4S)-1-methyl-4-isopropenylcyclohex-1-ene
d-limonene
(-)-limonene
d Limonene
limonene, (R)-isomer
dipentene
limonene, (S)-isomer
(D)-limonene
limonene, (+-)-isomer
(4R)-1-methyl-4-(1-methylethenyl)cyclohexene
4-mentha-1,8-diene
(+)-limonene
limonene, (+)-
limonene
AISA 5203-L (+)limonene
(R)-(+)-limonene
4 Mentha 1,8 diene
1-methyl-4-(1-methylethenyl)cyclohexene
cyclohexene, 1-methyl-4-(1-methylethenyl)-, (4R)-
limonene, (+-)-
(R)-4-isopropenyl-1-methylcyclohexene

> <MolecularFormula>
C10H16

> <MolecularWeight>
136.23

> <RotatableBondCount>
1

> <Smiles>
[C@H]1(CCC(C)=CC1)C(C)=C

> <SourceCategory>
Chemical Vendors
Legacy Depositors
Research and Development
Curation Efforts
Governmental Organizations
NIH Initiatives
Subscription Services
Journal Publishers

> <Synonym>
D-Limonene
5989-27-5
(+)-Limonene
(R)-(+)-Limonene
(+)-carvene
(+)-(4R)-Limonene
Citrene
(+)-p-Mentha-1,8-diene
(4R)-Limonene
D-(+)-Limonene
(R)-4-Isopropenyl-1-methyl-1-cyclohexene
(R)-Limonene
Carvene
Glidesafe
Glidsafe
Kautschiin
Refchole
(+)-R-Limonene
(R)-p-Mentha-1,8-diene
D-Limonen
d-p-Mentha-1,8-diene
(D)-Limonene
Limonene, D-
(+)-Dipentene
Biogenic SE 374
(+)-alpha-Limonene
d-Limonene (natural)
d-Limoneno [Spanish]
Limonene, (+)-
Cyclohexene, 1-methyl-4-(1-methylethenyl)-, (4R)-
(+)-4-Isopropenyl-1-methylcyclohexene
Hemo-sol
(4R)-(+)-Limonene
(R)-(+)-p-Mentha-1,8-diene
UNII-GFD7C86Q1W
(R)-1-Methyl-4-(1-methylethenyl)cyclohexene
MFCD00062991
CCRIS 671
FEMA No. 2633
EC 7
(4R)-4-isopropenyl-1-methylcyclohexene
HSDB 4186
D-1,8-p-Menthadiene
NCI-C55572
(+)-(R)-Limonene
EINECS 227-813-5
p-Mentha-1,8-diene, (R)-(+)-
GFD7C86Q1W
(+)-1,8-para-Menthadiene
AI3-15191
CHEBI:15382
1-Methyl-4-(1-methylethenyl)cyclohexene, (R)-
(R)-1-Methyl-4-(prop-1-en-2-yl)cyclohex-1-ene
(+) Limonene
(4R)-1-methyl-4-(prop-1-en-2-yl)cyclohex-1-ene
Cyclohexene, 1-methyl-4-(1-methylethenyl)-, (R)-
(R)-(+)-4-Isopropenyl-1-methylcyclohexene
(4R)-1-methyl-4-prop-1-en-2-ylcyclohexene
(4R)-1-methyl-4-(1-methylethenyl)cyclohexene
(+)-Limonene, stabilized with 0.03% tocopherol
Cyclohexene, 1-methyl-4-(1-methylethenyl)-, (theta)-
(+)-Limonene, 96%, unstabilized
d-Limoneno
D-limonene [JAN]
(4R)-4-isopropenyl-1-methyl-cyclohexene
Citrus stripper oil
Terpenes and Terpenoids, limonene fraction
Sulfate turpentine, distilled
Dextro-limonene
d limonene
citre ne
65996-98-7
EINECS 266-034-5
r-(+)-limonene
limonene, (R)-isomer
D-Limonene Reagent Grade
DSSTox_CID_778
EC 227-813-5
AC1L9A6P
DSSTox_RID_75785
DSSTox_GSID_20778
4betaH-p-mentha-1,8-diene
CHEMBL449062
DTXSID1020778
(R)-(+)-Limonene, 95%
(R)-(+)-Limonene, 97%
XMGQYMWWDOXHJM-JTQLQIEISA-N
ZINC967513
CS-M3273
KS-000001WP
(R)-(+)-Limonene, >=93%
Tox21_200400
6458AE
SBB055254
AKOS015899935
LMPR0102090013
LS-1427
NE11118
(R)-(+)-Limonene, analytical standard
NCGC00248591-01
NCGC00257954-01
AJ-24525
SC-65387
ZB015452
CAS-5989-27-5
(4R)-1-methyl-4-isopropenylcyclohex-1-ene
FT-0603053
L0047
L0105
C06099
(4R)-1-methyl-4-(1-methylvinyl)cyclohex-1-ene
J-502148
W-105295
I14-11275
(R)-(+)-Limonene, primary pharmaceutical reference standard
UNII-9MC3I34447 component XMGQYMWWDOXHJM-JTQLQIEISA-N
(R)-(+)-Limonene, purum, >=96.0% (sum of enantiomers, GC)
(R)-(+)-Limonene, technical, ~90% (sum of enantiomers, GC)

> <TPSA>
0

> <TotalAidCount>
345

> <TotalFormalCharge>
0

> <XLogP>
3.4

> <database>
PubChem Compound

> <matchingCount>
176

> <primaryID>
440917

> <queryTranslation>
7628[CompoundID] OR 244[CompoundID] OR 25059[CompoundID] OR 7618[CompoundID] OR 7641[CompoundID] OR 5053[CompoundID] OR 637511[CompoundID] OR 7714[CompoundID] OR 7762[CompoundID] OR 25429[CompoundID]
OR 8842[CompoundID] OR 7794[CompoundID] OR 637566[CompoundID] OR 7843[CompoundID] OR 174[CompoundID] OR 7870[CompoundID] OR 86102[CompoundID] OR 7888[CompoundID] OR 7896[CompoundID] OR 1140[CompoundID
] OR 8042[CompoundID] OR 8058[CompoundID] OR 8078[CompoundID] OR 8087[CompoundID] OR 8117[CompoundID] OR 8133[CompoundID] OR 115224[CompoundID] OR 8175[CompoundID] OR 8194[CompoundID] OR 445639[Compou
ndID] OR 4944[CompoundID] OR 8294[CompoundID] OR 93541[CompoundID] OR 8360[CompoundID] OR 8363[CompoundID] OR 656612[CompoundID] OR 125098[CompoundID] OR 3352[CompoundID] OR 3303913[CompoundID] OR 648
05[CompoundID] OR 31200[CompoundID] OR 1712058[CompoundID] OR 31236[CompoundID] OR 31239[CompoundID] OR 31265[CompoundID] OR 31266[CompoundID] OR 31276[CompoundID] OR 6950273[CompoundID] OR 518659[Com
poundID] OR 14896[CompoundID] OR 14798[CompoundID] OR 14829[CompoundID] OR 14830[CompoundID] OR 8635[CompoundID] OR 23266[CompoundID] OR 4284[CompoundID] OR 8693[CompoundID] OR 22311[CompoundID] OR 87
59[CompoundID] OR 8785[CompoundID] OR 2723810[CompoundID] OR 8857[CompoundID] OR 3893[CompoundID] OR 9936739[CompoundID] OR 516892[CompoundID] OR 5430[CompoundID] OR 9017[CompoundID] OR 15433[Compound
ID] OR 107720[CompoundID] OR 9552081[CompoundID] OR 164825[CompoundID] OR 10275455[CompoundID] OR 16666[CompoundID] OR 9839306[CompoundID] OR 5282227[CompoundID] OR 23676745[CompoundID] OR 32881[Compo
undID] OR 91581[CompoundID] OR 39800[CompoundID] OR 33344[CompoundID] OR 15962220[CompoundID] OR 33528[CompoundID] OR 5365075[CompoundID] OR 62829[CompoundID] OR 162381[CompoundID] OR 517202[CompoundI
D] OR 6433353[CompoundID] OR 2730[CompoundID] OR 5372405[CompoundID] OR 36081[CompoundID] OR 3120[CompoundID] OR 3017[CompoundID] OR 2969[CompoundID] OR 18827[CompoundID] OR 19518[CompoundID] OR 19658
[CompoundID] OR 38283[CompoundID] OR 2758[CompoundID] OR 10112[CompoundID] OR 10340[CompoundID] OR 712[CompoundID] OR 5794[CompoundID] OR 3347[CompoundID] OR 104150[CompoundID] OR 2912[CompoundID] OR
2450[CompoundID] OR 40326[CompoundID] OR 40585[CompoundID] OR 517055[CompoundID] OR 10913[CompoundID] OR 108242[CompoundID] OR 62097[CompoundID] OR 41679[CompoundID] OR 54680676[CompoundID] OR 62118[C
ompoundID] OR 753[CompoundID] OR 1030[CompoundID] OR 23673837[CompoundID] OR 54678504[CompoundID] OR 11442[CompoundID] OR 11463[CompoundID] OR 22230[CompoundID] OR 440917[CompoundID] OR 6054[CompoundI
D] OR 43234[CompoundID] OR 22629[CompoundID] OR 3039[CompoundID] OR 2735067[CompoundID] OR 6144[CompoundID] OR 702[CompoundID] OR 284[CompoundID] OR 176[CompoundID] OR 91688[CompoundID] OR 22947[Compo
undID] OR 47445[CompoundID] OR 1711973[CompoundID] OR 243[CompoundID] OR 10342051[CompoundID] OR 5281875[CompoundID] OR 3776[CompoundID] OR 6224[CompoundID] OR 104926[CompoundID] OR 8755[CompoundID] O
R 338[CompoundID] OR 123622[CompoundID] OR 23954[CompoundID] OR 6334[CompoundID] OR 2537[CompoundID] OR 24261[CompoundID] OR 23665760[CompoundID] OR 83975[CompoundID] OR 784[CompoundID] OR 24437[Compo
undID] OR 5360315[CompoundID] OR 311[CompoundID] OR 6549[CompoundID] OR 107689[CompoundID] OR 17100[CompoundID] OR 24976875[CompoundID] OR 6654[CompoundID] OR 71245[CompoundID] OR 6442842[CompoundID]
OR 62334[CompoundID] OR 54698175[CompoundID] OR 6328154[CompoundID] OR 24762[CompoundID] OR 440950[CompoundID] OR 7017[CompoundID] OR 5281873[CompoundID] OR 323[CompoundID] OR 5281167[CompoundID] OR 7
175[CompoundID] OR 7292[CompoundID] OR 6335613[CompoundID] OR 7456[CompoundID] OR 7462[CompoundID]

> <resultIndex>
40

> <resultRange>
1-176

> <textQuery>
7628,244,25059,7618,7641,5053,637511,7714,7762,25429,8842,7794,637566,7843,174,7870,86102,7888,7896,1140,8042,8058,8078,8087,8117,8133,115224,8175,8194,445639,4944,8294,93541,8360,8363,656612,125098,3
352,3303913,64805,31200,1712058,31236,31239,31265,31266,31276,6950273,518659,14896,14798,14829,14830,8635,23266,4284,8693,22311,8759,8785,2723810,8857,3893,9936739,516892,5430,9017,15433,107720,955208
1,164825,10275455,16666,9839306,5282227,23676745,32881,91581,39800,33344,15962220,33528,5365075,62829,162381,517202,6433353,2730,5372405,36081,3120,3017,2969,18827,19518,19658,38283,2758,10112,10340,7
12,5794,3347,104150,2912,2450,40326,40585,517055,10913,108242,62097,41679,54680676,62118,753,1030,23673837,54678504,11442,11463,22230,440917,6054,43234,22629,3039,2735067,6144,702,284,176,91688,22947,
47445,1711973,243,10342051,5281875,3776,6224,104926,8755,338,123622,23954,6334,2537,24261,23665760,83975,784,24437,5360315,311,6549,107689,17100,24976875,6654,71245,6442842,62334,54698175,6328154,2476
2,440950,7017,5281873,323,5281167,7175,7292,6335613,7456,7462

$$$$
164,825
  SciTegic10191915303D

 40 42  0  0  1  0            999 V2000
   -1.2440   -0.2240    2.2070 N   0  0
   -0.7600   -1.2340    1.7150 N   0  0
    0.7850    0.4360    1.3960 C   0  0  3  0  0  0
    0.5080   -1.0150    1.1600 C   0  0
   -0.4900    0.8170    2.1090 C   0  0
   -0.8100    2.1580    2.6150 C   0  0
   -0.0350    3.0720    2.4590 O   0  0
   -1.8910    2.2870    3.1890 O   0  5
    1.2030   -1.8460    0.6170 O   0  0
   -1.3140   -4.8830    1.7150 C   0  0
   -2.7190   -4.9320    1.7150 C   0  0
   -3.4670   -3.7420    1.7150 C   0  0
   -2.8100   -2.5000    1.7150 C   0  0
   -1.4020   -2.4450    1.7150 C   0  0
   -0.6560   -3.6410    1.7150 C   0  0
   -3.5270   -6.4550    1.7150 S   0  0
   -4.2560   -6.5860    0.4650 O   0  0
   -4.3830   -6.5190    2.8870 O   0  0
   -2.5060   -7.6000    1.8010 O   0  5
    1.8730    2.0510    0.0760 N   0  0
    0.9920    1.1860    0.1410 N   0  0
    3.2540    4.4570   -2.3560 C   0  0
    2.4430    4.1920   -3.4710 C   0  0
    1.4420    3.2090   -3.4000 C   0  0
    1.2500    2.4880   -2.2070 C   0  0
    2.0610    2.7520   -1.0860 C   0  0
    3.0630    3.7380   -1.1620 C   0  0
    2.6780    5.0760   -4.9340 S   0  0
    1.4880    5.8710   -5.1840 O   0  0
    2.9650    4.1290   -5.9980 O   0  0
    3.8750    6.0260   -4.7970 O   0  5
    1.6410    0.5610    2.0450 H   0  0
   -0.7420   -5.7990    1.7150 H   0  0
   -4.5470   -3.7810    1.7150 H   0  0
   -3.4000   -1.5940    1.7150 H   0  0
    0.4260   -3.6210    1.7150 H   0  0
    4.0240    5.2130   -2.4120 H   0  0
    0.8180    3.0060   -4.2580 H   0  0
    0.4750    1.7370   -2.1680 H   0  0
    3.6950    3.9530   -0.3130 H   0  0
  1  2  1  0
  1  5  2  0
  2  4  1  0
  2 14  1  0
  3  4  1  0
  3  5  1  0
  3 21  1  0
  4  9  2  0
  5  6  1  0
  6  7  2  0
  6  8  1  0
 10 15  2  0
 10 11  1  0
 11 12  2  0
 11 16  1  0
 12 13  1  0
 13 14  2  0
 14 15  1  0
 16 17  2  0
 16 18  2  0
 16 19  1  0
 20 26  1  0
 20 21  2  3
 22 27  2  0
 22 23  1  0
 23 24  2  0
 23 28  1  0
 24 25  1  0
 25 26  2  0
 26 27  1  0
 28 29  2  0
 28 30  2  0
 28 31  1  0
  3 32  1  0
 10 33  1  0
 12 34  1  0
 13 35  1  0
 15 36  1  0
 22 37  1  0
 24 38  1  0
 25 39  1  0
 27 40  1  0
M  CHG  3   8  -1  19  -1  31  -1
M  END
> <Name>
164,825

> <OBJECTID>
9223372212951777291

> <ActiveAidCount>
0

> <AtomChiralCount>
1

> <AtomChiralDefCount>
0

> <AtomChiralUndefCount>
1

> <BondChiralCount>
0

> <BondChiralDefCount>
0

> <BondChiralUndefCount>
0

> <CID>
164825

> <CanonicalSmiles>
C1=CC(=CC=C1N=NC2C(=NN(C2=O)C3=CC=C(C=C3)S(=O)(=O)[O-])C(=O)[O-])S(=O)(=O)[O-].[Na+].[Na+].[Na+]

> <Complexity>
949

> <CovalentUnitCount>
4

> <CreateDate>
2005/06/24 00:00

> <HeavyAtomCount>
34

> <HydrogenBondAcceptorCount>
12

> <HydrogenBondDonorCount>
0

> <IUPACName>
trisodium;5-oxo-1-(4-sulfonatophenyl)-4-[(4-sulfonatophenyl)diazenyl]-4H-pyrazole-3-carboxylate

> <InChI>
InChI=1S/C16H12N4O9S2.3Na/c21-15-13(18-17-9-1-5-11(6-2-9)30(24,25)26)14(16(22)23)19-20(15)10-3-7-12(8-4-10)31(27,28)29;;;/h1-8,13H,(H,22,23)(H,24,25,26)(H,27,28,29);;;/q;3*+1/p-3

> <InChIKey>
UJMBCXLDXJUMFB-UHFFFAOYSA-K

> <IsomericSmiles>
C1=CC(=CC=C1N=NC2C(=NN(C2=O)C3=CC=C(C=C3)S(=O)(=O)[O-])C(=O)[O-])S(=O)(=O)[O-].[Na+].[Na+].[Na+]

> <IsotopeAtomCount>
0

> <MeSHHeading>
Tartrazine

> <MeSHTerm>
Barium, Tartrazine
Tartrazine Barium
Tartrazine
FD and C Yellow No. 5
Tartrazine Barium (2:3)

> <MolecularFormula>
C16H9N4Na3O9S2

> <MolecularWeight>
534.4

> <PharmAction>
Food Coloring Agents
Food Additives
Specialty Uses of Chemicals
Coloring Agents
Chemical Actions and Uses
Food Ingredients

> <RotatableBondCount>
3

> <Smiles>
N1=C(C([O-])=O)C(N=Nc(c2)ccc(S([O-])(=O)=O)c2)C(=O)N1c(c3)ccc(S([O-])(=O)=O)c3.[Na+].[Na+].[Na+]

> <SourceCategory>
Chemical Vendors
Legacy Depositors
Research and Development
Curation Efforts
Governmental Organizations
Subscription Services
Journal Publishers
NIH Initiatives

> <Synonym>
Tartrazine
1934-21-0
Yellow 5
Aizen tartrazine
trisodium salt
C.I. ACID YELLOW 23
Food Yellow 4
Tartrazine FD&C Yellow #5
Atul Tartrazine
Erio Tartrazine
Kako Tartrazine
Tartrazine Lake
Tartrazine B
Tartrazine C
Tartrazine G
Tartrazine M
Tartrazine N
Tartrazine O
Tartrazine T
CI 19140
HD Tartrazine
Lake Yellow
Sugai Tartrazine
Tartrazine FQ
Tartrazine NS
Tartrazine XX
Tartrazol Yellow
A.F. Yellow No. 4
Tartrazine XXX
Tartrazine MCGL
Tartrazol BPC
Amacid Yellow T
Cilefa Yellow T
Dye Yellow Lake
Fenazo Yellow T
Kayaku Tartrazine
Mitsui Tartrazine
Oxanal Yellow T
Tartar Yellow N
Tartar Yellow S
Tartrazine Yellow
Lemon Yellow A
Acid Yellow T
Bucacid tartrazine
Dolkwal tartrazine
Hexacol Tartrazine
Acilan Yellow GG
C.I. 19140
Egg Yellow A
San-ei Tartrazine
Tartar Yellow FS
Tartar Yellow PF
Airedale Yellow T
Canacert tartrazine
Food Yellow 5
Neklacid Yellow T
Tartrine Yellow O
Eurocert Tartrazine
Hydroxine Yellow L
Tartrazine C Extra
Calcocid Yellow XX
KCA Tartrazine PF
Yellow Lake 69
Naphtocard Yellow O
Tartrazine A Export
HD Tartrazine Supra
Calcocid Yellow MCG
Tartrazine Yellow 5
Yellow No. 5
Tartrazine A expo T
Tartrazine B.P.C.
D&C Yellow 5
Lemon Yellow A Geigy
Schultz No. 737
Maple Tartrazol Yellow
Acid Leather Yellow T
Unitertracid Yellow TE
Yellow No. 5 FDC
Curon Fast Yellow 5G
FD And C Yellow 5
1310 Yellow
1409 Yellow
Xylene Fast Yellow GT
Hispacid Fast Yellow T
Usacert Yellow No. 5
C.I. Food Yellow 4
Hexacert Yellow No. 5
CHEBI:9405
FD&G Yellow No. 5
Tartrazine Extra Pure A
L Yellow Z 1020
1342-47-8
Tartrazine Lake Yellow N
Edicol Supra Tartrazine N
D and C Yellow No. 5
KCA Foodcol Tartrazine PF
Certicol Tartrazol Yellow S
Tartrazine O Specially Pure
Tartrazine XX Specially Pure
C.I. 640
C.I. Pigment Yellow 100
MFCD00148908
Dye FD and C Yellow No. 5
Tartrazine FD & C Yellow #5
E102
Kayaku Food Colour Yellow No. 4
Tartrazine, 89%, pure
Food Yellow 4:1
12225-21-7
C.I. Acid Yellow 23, trisodium salt
NSC4760
Zlut kysela 23
4,5-Dihydro-5-oxo-1-(4-sulfophenyl)-4-((4-sulfophenyl)azo)-1H-pyrazole-3-carboxylic acid, trisodium salt
Trisodium 5-oxo-1-(4-sulfonatophenyl)-4-[(E)-(4-sulfonatophenyl)diazenyl]-4,5-dihydro-1H-pyrazole-3-carboxylate
Zlut pigment 100
Zlut potravinarska 4
3-Carboxy-5-hydroxy-1-p-sulfophenyl-4-p-sulfophenylazopyrazole trisodium salt
L-Gelb 2
tri sodium salt
Food yellow No.4
EaEthO>>AE 23
AC1L4VJG
AC1Q1UOE
Epitope ID:124945
Tartrazine, analytical standard
Tartrazine (C.I. 19140)
CTK4B9056
KS-00000YDJ
UJMBCXLDXJUMFB-UHFFFAOYSA-K
Tartrazine, p.a., 95-105%
Tartrazine, Dye content >=85 %
HY-D0257
C.I. 19140(Acid Yellow 23
Tartrazine, for microscopy (Hist.)
AKOS015903034
AKOS016010270
CS-5364
4,5-dihydro-5-oxo-1-(4-sulfophenyl)-4-[(4-sulfophenyl)azo]-1h-pyrazole-3-carboxylic acid trisodium salt
AN-22220
BP-31013
LS-162700
FT-0621860
ST24031674
C07574
W-107716
C.I. Acid Yellow 23, trisodium salt (VAN) (8CI)
I14-18503
TARTRAZINE LAKE, CI NO 19140:1 , FD & C YELLOW 5 LAKE
4,5-Dihydro-5-oxo-1-(4-sulfophenyl)-4-((4-sulfophenyl)azo)-1H-pyrazole-3-carboxylic acid
5-oxo-1-(4-sulfophenyl)-4-[(E)-(4-sulfophenyl)azo]-4H-pyrazole-3-carboxylic acid
trisodium 5-oxo-1-(4-sulfonatophenyl)-4-(4-sulfonatophenyl)azo-4H-pyrazole-3-carboxylate
1H-Pyrazole-3-carboxylic acid,4,5-dihydro-5-oxo-1-(4-sulfophenyl)-4-[(4-sulfophenyl)azo]-, trisodiumsalt
sodium (E)-5-oxo-1-(4-sulfonatophenyl)-4-((4-sulfonatophenyl)diazenyl)-4,5-dihydro-1H-pyrazole-3-carboxylate
tripotassium 5-oxo-1-(4-sulfonatophenyl)-4-[2-(4-sulfonatophenyl)diazen-1-yl]-4H-pyrazole-3-carboxylate
trisodium 5-oxo-1-(4-sulfonatophenyl)-4-[(4-sulfonatophenyl)diazenyl]-4H-pyrazole-3-carboxylate
Trisodium 5-oxo-1-(4-sulfonatophenyl)-4-[(E)-(4-sulfonatophenyl)d iazenyl]-4,5-dihydro-1H-pyrazole-3-carboxylate
trisodium 5-oxo-1-(4-sulfonatophenyl)-4-[(E)-2-(4-sulfonatophenyl)diazen-1-yl]-4H-pyrazole-3-carboxylate
trisodium;5-oxo-1-(4-sulfonatophenyl)-4-[(E)-(4-sulfonatophenyl)diazenyl]-4H-pyrazole-3-carboxylate

> <TPSA>
229

> <TotalAidCount>
3

> <TotalFormalCharge>
0

> <database>
PubChem Compound

> <matchingCount>
176

> <primaryID>
164825

> <queryTranslation>
7628[CompoundID] OR 244[CompoundID] OR 25059[CompoundID] OR 7618[CompoundID] OR 7641[CompoundID] OR 5053[CompoundID] OR 637511[CompoundID] OR 7714[CompoundID] OR 7762[CompoundID] OR 25429[CompoundID]
OR 8842[CompoundID] OR 7794[CompoundID] OR 637566[CompoundID] OR 7843[CompoundID] OR 174[CompoundID] OR 7870[CompoundID] OR 86102[CompoundID] OR 7888[CompoundID] OR 7896[CompoundID] OR 1140[CompoundID
] OR 8042[CompoundID] OR 8058[CompoundID] OR 8078[CompoundID] OR 8087[CompoundID] OR 8117[CompoundID] OR 8133[CompoundID] OR 115224[CompoundID] OR 8175[CompoundID] OR 8194[CompoundID] OR 445639[Compou
ndID] OR 4944[CompoundID] OR 8294[CompoundID] OR 93541[CompoundID] OR 8360[CompoundID] OR 8363[CompoundID] OR 656612[CompoundID] OR 125098[CompoundID] OR 3352[CompoundID] OR 3303913[CompoundID] OR 648
05[CompoundID] OR 31200[CompoundID] OR 1712058[CompoundID] OR 31236[CompoundID] OR 31239[CompoundID] OR 31265[CompoundID] OR 31266[CompoundID] OR 31276[CompoundID] OR 6950273[CompoundID] OR 518659[Com
poundID] OR 14896[CompoundID] OR 14798[CompoundID] OR 14829[CompoundID] OR 14830[CompoundID] OR 8635[CompoundID] OR 23266[CompoundID] OR 4284[CompoundID] OR 8693[CompoundID] OR 22311[CompoundID] OR 87
59[CompoundID] OR 8785[CompoundID] OR 2723810[CompoundID] OR 8857[CompoundID] OR 3893[CompoundID] OR 9936739[CompoundID] OR 516892[CompoundID] OR 5430[CompoundID] OR 9017[CompoundID] OR 15433[Compound
ID] OR 107720[CompoundID] OR 9552081[CompoundID] OR 164825[CompoundID] OR 10275455[CompoundID] OR 16666[CompoundID] OR 9839306[CompoundID] OR 5282227[CompoundID] OR 23676745[CompoundID] OR 32881[Compo
undID] OR 91581[CompoundID] OR 39800[CompoundID] OR 33344[CompoundID] OR 15962220[CompoundID] OR 33528[CompoundID] OR 5365075[CompoundID] OR 62829[CompoundID] OR 162381[CompoundID] OR 517202[CompoundI
D] OR 6433353[CompoundID] OR 2730[CompoundID] OR 5372405[CompoundID] OR 36081[CompoundID] OR 3120[CompoundID] OR 3017[CompoundID] OR 2969[CompoundID] OR 18827[CompoundID] OR 19518[CompoundID] OR 19658
[CompoundID] OR 38283[CompoundID] OR 2758[CompoundID] OR 10112[CompoundID] OR 10340[CompoundID] OR 712[CompoundID] OR 5794[CompoundID] OR 3347[CompoundID] OR 104150[CompoundID] OR 2912[CompoundID] OR
2450[CompoundID] OR 40326[CompoundID] OR 40585[CompoundID] OR 517055[CompoundID] OR 10913[CompoundID] OR 108242[CompoundID] OR 62097[CompoundID] OR 41679[CompoundID] OR 54680676[CompoundID] OR 62118[C
ompoundID] OR 753[CompoundID] OR 1030[CompoundID] OR 23673837[CompoundID] OR 54678504[CompoundID] OR 11442[CompoundID] OR 11463[CompoundID] OR 22230[CompoundID] OR 440917[CompoundID] OR 6054[CompoundI
D] OR 43234[CompoundID] OR 22629[CompoundID] OR 3039[CompoundID] OR 2735067[CompoundID] OR 6144[CompoundID] OR 702[CompoundID] OR 284[CompoundID] OR 176[CompoundID] OR 91688[CompoundID] OR 22947[Compo
undID] OR 47445[CompoundID] OR 1711973[CompoundID] OR 243[CompoundID] OR 10342051[CompoundID] OR 5281875[CompoundID] OR 3776[CompoundID] OR 6224[CompoundID] OR 104926[CompoundID] OR 8755[CompoundID] O
R 338[CompoundID] OR 123622[CompoundID] OR 23954[CompoundID] OR 6334[CompoundID] OR 2537[CompoundID] OR 24261[CompoundID] OR 23665760[CompoundID] OR 83975[CompoundID] OR 784[CompoundID] OR 24437[Compo
undID] OR 5360315[CompoundID] OR 311[CompoundID] OR 6549[CompoundID] OR 107689[CompoundID] OR 17100[CompoundID] OR 24976875[CompoundID] OR 6654[CompoundID] OR 71245[CompoundID] OR 6442842[CompoundID]
OR 62334[CompoundID] OR 54698175[CompoundID] OR 6328154[CompoundID] OR 24762[CompoundID] OR 440950[CompoundID] OR 7017[CompoundID] OR 5281873[CompoundID] OR 323[CompoundID] OR 5281167[CompoundID] OR 7
175[CompoundID] OR 7292[CompoundID] OR 6335613[CompoundID] OR 7456[CompoundID] OR 7462[CompoundID]

> <resultIndex>
41

> <resultRange>
1-176

> <textQuery>
7628,244,25059,7618,7641,5053,637511,7714,7762,25429,8842,7794,637566,7843,174,7870,86102,7888,7896,1140,8042,8058,8078,8087,8117,8133,115224,8175,8194,445639,4944,8294,93541,8360,8363,656612,125098,3
352,3303913,64805,31200,1712058,31236,31239,31265,31266,31276,6950273,518659,14896,14798,14829,14830,8635,23266,4284,8693,22311,8759,8785,2723810,8857,3893,9936739,516892,5430,9017,15433,107720,955208
1,164825,10275455,16666,9839306,5282227,23676745,32881,91581,39800,33344,15962220,33528,5365075,62829,162381,517202,6433353,2730,5372405,36081,3120,3017,2969,18827,19518,19658,38283,2758,10112,10340,7
12,5794,3347,104150,2912,2450,40326,40585,517055,10913,108242,62097,41679,54680676,62118,753,1030,23673837,54678504,11442,11463,22230,440917,6054,43234,22629,3039,2735067,6144,702,284,176,91688,22947,
47445,1711973,243,10342051,5281875,3776,6224,104926,8755,338,123622,23954,6334,2537,24261,23665760,83975,784,24437,5360315,311,6549,107689,17100,24976875,6654,71245,6442842,62334,54698175,6328154,2476
2,440950,7017,5281873,323,5281167,7175,7292,6335613,7456,7462

$$$$
162,381
  SciTegic10191915303D

 51 53  0  0  1  0            999 V2000
   -0.8650    1.0700    0.3160 O   0  0
   -0.3980    2.3050    2.1270 O   0  0
   -2.1350    1.6560   -3.8400 O   0  0
    0.2680   -1.1680    2.1890 C   0  0
   -0.7170   -0.0370    2.4390 C   0  0  1  0  0  0
    0.3730   -0.3260    3.4510 C   0  0  1  0  0  0
   -0.6430    1.2360    1.6170 C   0  0
   -0.0060   -0.9160    4.7990 C   0  0
   -0.2660   -2.5920    2.3010 C   0  0
    1.3500   -0.9780    1.1330 C   0  0
   -0.5040   -0.1230    5.7620 C   0  0
   -0.7340    2.2810   -0.4140 C   0  0
   -1.0020    2.0200   -1.8790 C   0  0
   -0.7890    1.6370   -4.0650 C   0  0
   -0.0590    1.8540   -2.8930 C   0  0
   -2.2480    1.8910   -2.5000 C   0  0
   -0.8540   -0.7420    7.0900 C   0  0
   -0.6860    1.3400    5.4650 C   0  0
   -0.2150    1.4000   -5.4440 C   0  0
    0.5740    0.1410   -5.4440 C   0  0
   -0.0840   -1.1020   -5.4440 C   0  0
    1.9800    0.1910   -5.4440 C   0  0
    0.6640   -2.2930   -5.4440 C   0  0
    2.7270   -1.0000   -5.4440 C   0  0
    2.0680   -2.2420   -5.4440 C   0  0
   -1.7300   -0.3280    2.7190 H   0  0
    1.2010    0.3830    3.4940 H   0  0
    0.1500   -1.9780    4.9180 H   0  0
   -1.1020   -2.6620    2.9980 H   0  0
    0.5140   -3.2700    2.6460 H   0  0
   -0.6110   -2.9510    1.3300 H   0  0
    1.7540    0.0330    1.1410 H   0  0
    0.9530   -1.1720    0.1370 H   0  0
    2.1760   -1.6700    1.3010 H   0  0
    0.2870    2.6450   -0.2910 H   0  0
   -1.4670    2.9920   -0.0310 H   0  0
    1.0200    1.8890   -2.7930 H   0  0
   -3.1990    1.9670   -1.9880 H   0  0
   -0.1930   -1.5590    7.3770 H   0  0
   -1.8710   -1.1310    7.0590 H   0  0
   -0.8090    0.0160    7.8730 H   0  0
    0.2870    1.8260    5.3870 H   0  0
   -1.2700    1.4630    4.5530 H   0  0
   -1.2320    1.8180    6.2790 H   0  0
    0.4320    2.2340   -5.7150 H   0  0
   -1.0270    1.3200   -6.1660 H   0  0
   -1.1620   -1.1480   -5.4440 H   0  0
    2.4920    1.1430   -5.4440 H   0  0
    0.1580   -3.2480   -5.4440 H   0  0
    3.8070   -0.9610   -5.4440 H   0  0
    2.6430   -3.1560   -5.4440 H   0  0
  1  7  1  0
  1 12  1  0
  2  7  2  0
  3 14  1  0
  3 16  1  0
  4  5  1  0
  4  6  1  0
  4  9  1  0
  4 10  1  0
  5  6  1  0
  5  7  1  0
  6  8  1  0
  8 11  2  0
 11 17  1  0
 11 18  1  0
 12 13  1  0
 13 15  1  0
 13 16  2  0
 14 15  2  0
 14 19  1  0
 19 20  1  0
 20 21  2  0
 20 22  1  0
 21 23  1  0
 22 24  2  0
 23 25  2  0
 24 25  1  0
  5 26  1  0
  6 27  1  0
  8 28  1  0
  9 29  1  0
  9 30  1  0
  9 31  1  0
 10 32  1  0
 10 33  1  0
 10 34  1  0
 12 35  1  0
 12 36  1  0
 15 37  1  0
 16 38  1  0
 17 39  1  0
 17 40  1  0
 17 41  1  0
 18 42  1  0
 18 43  1  0
 18 44  1  0
 19 45  1  0
 19 46  1  0
 21 47  1  0
 22 48  1  0
 23 49  1  0
 24 50  1  0
 25 51  1  0
M  END
> <Name>
162,381

> <OBJECTID>
9223372217246744587

> <ActiveAidCount>
11

> <AtomChiralCount>
2

> <AtomChiralDefCount>
2

> <AtomChiralUndefCount>
0

> <BondChiralCount>
0

> <BondChiralDefCount>
0

> <BondChiralUndefCount>
0

> <CID>
162381

> <CanonicalSmiles>
CC(=CC1C(C1(C)C)C(=O)OCC2=COC(=C2)CC3=CC=CC=C3)C

> <Complexity>
497

> <CovalentUnitCount>
1

> <CreateDate>
2005/08/08 00:00

> <HeavyAtomCount>
25

> <HydrogenBondAcceptorCount>
3

> <HydrogenBondDonorCount>
0

> <IUPACName>
(5-benzylfuran-3-yl)methyl (1R,3R)-2,2-dimethyl-3-(2-methylprop-1-enyl)cyclopropane-1-carboxylate

> <InChI>
InChI=1S/C22H26O3/c1-15(2)10-19-20(22(19,3)4)21(23)25-14-17-12-18(24-13-17)11-16-8-6-5-7-9-16/h5-10,12-13,19-20H,11,14H2,1-4H3/t19-,20+/m1/s1

> <InChIKey>
VEMKTZHHVJILDY-UXHICEINSA-N

> <IsomericSmiles>
CC(=C[C@@H]1[C@H](C1(C)C)C(=O)OCC2=COC(=C2)CC3=CC=CC=C3)C

> <IsotopeAtomCount>
0

> <MeSHHeading>
bioresmethrin

> <MeSHTerm>
bioresmethrin, trans-(-)-isomer
bioresmethrin, trans-(+-)-isomer
bioresmethrin, 14C-labeled, (1R-trans)-isomer
trans-resmethrin
bioresmethrin

> <MolecularFormula>
C22H26O3

> <MolecularWeight>
338.4

> <PharmAction>
Agrochemicals
Pesticides
Toxic Actions
Insecticides
Chemical Actions and Uses
Specialty Uses of Chemicals

> <RotatableBondCount>
7

> <Smiles>
O(Cc(co1)cc1Cc2ccccc2)C([C@@H]3[C@@H](\C=C(/C)\C)C3(C)C)=O

> <SourceCategory>
Legacy Depositors
Chemical Vendors
Governmental Organizations
NIH Initiatives
Subscription Services
Journal Publishers
Research and Development
Curation Efforts

> <Synonym>
BIORESMETHRIN
28434-01-7
Isatrin
Biobenzyfuroline
(+)-trans-Resmethrin
1R-trans-Resemethrin
(1RS)-trans-Resmethrin
UNII-YPP8YQZ13B
trans-Resmethrin
YPP8YQZ13B
5-Benzyl-3-furylmethyl (+)-trans-chrysanthemate
Bioresmethhrin
Bioresmetrina
d-trans-Chrysron
CHEBI:39280
Bioresmethrin [INN]
Penick 1390
Bioresmethrine [French]
Bioresmethrinum [Latin]
Bioresmetrina [Spanish]
Pyrethroid NRDC 107
Bioresmetrina [Portuguese]
DSSTox_CID_14382
DSSTox_RID_79150
5-Benzyl-3-furylmethyl (1R)-trans-chrysanthemate
Bioresmethrine [ISO-French]
DSSTox_GSID_34382
CCRIS 5401
Bioresmethrinum
EINECS 249-014-0
(5-benzylfuran-3-yl)methyl (1R,3R)-2,2-dimethyl-3-(2-methylprop-1-en-1-yl)cyclopropanecarboxylate
(5-benzylfuran-3-yl)methyl (1R,3R)-2,2-dimethyl-3-(2-methylprop-1-enyl)cyclopropane-1-carboxylate
CAS-28434-01-7
5-Benzyl-3-furylmethyl-d-trans-crysanthemate
AI 3-27662
Bioresmethrin [BSI:ISO]
d-trans-(5-Benzyl-3-furyl)methyl chrysanthemate
10453-55-1
d-trans-((5-Benzyl-3-furyl)methyl)chrysanthemumate
3-Furanmethanol, 5-benzyl-, 2,2-dimethyl-3-(2-methylpropenyl)cyclopropanecarboxylate, t-(+)-
5-Benzyl-3-furylmethyl (1R)-trans-2,2-dimethyl-3-(2-mthylprop-1-enyl)cyclopropanecarboxylate
5-Benzyl-3-furylmethyl (1R,3R)-2,2-dimethyl-3-(2-methylprop-1-enyl)cyclopropanecarboxylate
NCGC00163786-03
Cyclopropanecarboxylic acid, 2,2-dimethyl-3-(2-methyl-1-propenyl)-, (5-(phenylmethyl)-3-furanyl)methyl ester, (1RS-trans)-
AC1L4R6F
AC1Q65XB
SCHEMBL63705
CHEMBL2106605
Chrysanthemate, trans-(+/-)-
DTXSID2034382
5-Benzyl-3-furylmethyl (1R)-trans-chrysanthemate (8CI)
ZINC900673
Cyclopropanecarboxylic acid, 2,2-dimethyl-3-(2-methyl-1-propenyl)-, (5-(phenylmethyl)-3-furanyl)methyl ester, (1R,3R)-
Cyclopropanecarboxylic acid, 2,2-dimethyl-3-(2-methyl-1-propenyl)-, (5-(phenylmethyl)-3-furanyl)methyl ester, trans-(+-)-
Tox21_112072
Tox21_302393
Tox21_112072_1
NCGC00163786-06
NCGC00255132-01
Bioresmethrin 100 microg/mL in n-Hexane
CC-24662
ZB015204
524-EP2275422A1
FT-0630541
C16810
Bioresmethrin, PESTANAL(R), analytical standard
C-20282
UNII-Z6PN6KTG4K component VEMKTZHHVJILDY-UXHICEINSA-N
UNII-8535H601Y7 component VEMKTZHHVJILDY-UXHICEINSA-N
(1R,3R)-(5-benzylfuran-3-yl)methyl 2,2-dimethyl-3-(2-methylprop-1-enyl)cyclopropanecarboxylate

> <TPSA>
39.4

> <TotalAidCount>
270

> <TotalFormalCharge>
0

> <XLogP>
6.1

> <database>
PubChem Compound

> <matchingCount>
176

> <primaryID>
162381

> <queryTranslation>
7628[CompoundID] OR 244[CompoundID] OR 25059[CompoundID] OR 7618[CompoundID] OR 7641[CompoundID] OR 5053[CompoundID] OR 637511[CompoundID] OR 7714[CompoundID] OR 7762[CompoundID] OR 25429[CompoundID]
OR 8842[CompoundID] OR 7794[CompoundID] OR 637566[CompoundID] OR 7843[CompoundID] OR 174[CompoundID] OR 7870[CompoundID] OR 86102[CompoundID] OR 7888[CompoundID] OR 7896[CompoundID] OR 1140[CompoundID
] OR 8042[CompoundID] OR 8058[CompoundID] OR 8078[CompoundID] OR 8087[CompoundID] OR 8117[CompoundID] OR 8133[CompoundID] OR 115224[CompoundID] OR 8175[CompoundID] OR 8194[CompoundID] OR 445639[Compou
ndID] OR 4944[CompoundID] OR 8294[CompoundID] OR 93541[CompoundID] OR 8360[CompoundID] OR 8363[CompoundID] OR 656612[CompoundID] OR 125098[CompoundID] OR 3352[CompoundID] OR 3303913[CompoundID] OR 648
05[CompoundID] OR 31200[CompoundID] OR 1712058[CompoundID] OR 31236[CompoundID] OR 31239[CompoundID] OR 31265[CompoundID] OR 31266[CompoundID] OR 31276[CompoundID] OR 6950273[CompoundID] OR 518659[Com
poundID] OR 14896[CompoundID] OR 14798[CompoundID] OR 14829[CompoundID] OR 14830[CompoundID] OR 8635[CompoundID] OR 23266[CompoundID] OR 4284[CompoundID] OR 8693[CompoundID] OR 22311[CompoundID] OR 87
59[CompoundID] OR 8785[CompoundID] OR 2723810[CompoundID] OR 8857[CompoundID] OR 3893[CompoundID] OR 9936739[CompoundID] OR 516892[CompoundID] OR 5430[CompoundID] OR 9017[CompoundID] OR 15433[Compound
ID] OR 107720[CompoundID] OR 9552081[CompoundID] OR 164825[CompoundID] OR 10275455[CompoundID] OR 16666[CompoundID] OR 9839306[CompoundID] OR 5282227[CompoundID] OR 23676745[CompoundID] OR 32881[Compo
undID] OR 91581[CompoundID] OR 39800[CompoundID] OR 33344[CompoundID] OR 15962220[CompoundID] OR 33528[CompoundID] OR 5365075[CompoundID] OR 62829[CompoundID] OR 162381[CompoundID] OR 517202[CompoundI
D] OR 6433353[CompoundID] OR 2730[CompoundID] OR 5372405[CompoundID] OR 36081[CompoundID] OR 3120[CompoundID] OR 3017[CompoundID] OR 2969[CompoundID] OR 18827[CompoundID] OR 19518[CompoundID] OR 19658
[CompoundID] OR 38283[CompoundID] OR 2758[CompoundID] OR 10112[CompoundID] OR 10340[CompoundID] OR 712[CompoundID] OR 5794[CompoundID] OR 3347[CompoundID] OR 104150[CompoundID] OR 2912[CompoundID] OR
2450[CompoundID] OR 40326[CompoundID] OR 40585[CompoundID] OR 517055[CompoundID] OR 10913[CompoundID] OR 108242[CompoundID] OR 62097[CompoundID] OR 41679[CompoundID] OR 54680676[CompoundID] OR 62118[C
ompoundID] OR 753[CompoundID] OR 1030[CompoundID] OR 23673837[CompoundID] OR 54678504[CompoundID] OR 11442[CompoundID] OR 11463[CompoundID] OR 22230[CompoundID] OR 440917[CompoundID] OR 6054[CompoundI
D] OR 43234[CompoundID] OR 22629[CompoundID] OR 3039[CompoundID] OR 2735067[CompoundID] OR 6144[CompoundID] OR 702[CompoundID] OR 284[CompoundID] OR 176[CompoundID] OR 91688[CompoundID] OR 22947[Compo
undID] OR 47445[CompoundID] OR 1711973[CompoundID] OR 243[CompoundID] OR 10342051[CompoundID] OR 5281875[CompoundID] OR 3776[CompoundID] OR 6224[CompoundID] OR 104926[CompoundID] OR 8755[CompoundID] O
R 338[CompoundID] OR 123622[CompoundID] OR 23954[CompoundID] OR 6334[CompoundID] OR 2537[CompoundID] OR 24261[CompoundID] OR 23665760[CompoundID] OR 83975[CompoundID] OR 784[CompoundID] OR 24437[Compo
undID] OR 5360315[CompoundID] OR 311[CompoundID] OR 6549[CompoundID] OR 107689[CompoundID] OR 17100[CompoundID] OR 24976875[CompoundID] OR 6654[CompoundID] OR 71245[CompoundID] OR 6442842[CompoundID]
OR 62334[CompoundID] OR 54698175[CompoundID] OR 6328154[CompoundID] OR 24762[CompoundID] OR 440950[CompoundID] OR 7017[CompoundID] OR 5281873[CompoundID] OR 323[CompoundID] OR 5281167[CompoundID] OR 7
175[CompoundID] OR 7292[CompoundID] OR 6335613[CompoundID] OR 7456[CompoundID] OR 7462[CompoundID]

> <resultIndex>
42

> <resultRange>
1-176

> <textQuery>
7628,244,25059,7618,7641,5053,637511,7714,7762,25429,8842,7794,637566,7843,174,7870,86102,7888,7896,1140,8042,8058,8078,8087,8117,8133,115224,8175,8194,445639,4944,8294,93541,8360,8363,656612,125098,3
352,3303913,64805,31200,1712058,31236,31239,31265,31266,31276,6950273,518659,14896,14798,14829,14830,8635,23266,4284,8693,22311,8759,8785,2723810,8857,3893,9936739,516892,5430,9017,15433,107720,955208
1,164825,10275455,16666,9839306,5282227,23676745,32881,91581,39800,33344,15962220,33528,5365075,62829,162381,517202,6433353,2730,5372405,36081,3120,3017,2969,18827,19518,19658,38283,2758,10112,10340,7
12,5794,3347,104150,2912,2450,40326,40585,517055,10913,108242,62097,41679,54680676,62118,753,1030,23673837,54678504,11442,11463,22230,440917,6054,43234,22629,3039,2735067,6144,702,284,176,91688,22947,
47445,1711973,243,10342051,5281875,3776,6224,104926,8755,338,123622,23954,6334,2537,24261,23665760,83975,784,24437,5360315,311,6549,107689,17100,24976875,6654,71245,6442842,62334,54698175,6328154,2476
2,440950,7017,5281873,323,5281167,7175,7292,6335613,7456,7462

$$$$
125,098
  SciTegic10191915303D

 39 39  0  0  1  0            999 V2000
    0.6460   -0.4120   -0.2540 C   0  0
    0.0180    0.6700   -0.8150 N   0  0
    1.8400   -0.1720    0.2830 O   0  0
    0.1190   -1.4980   -0.2660 O   0  0
   -1.4060    0.6170   -1.2580 C   0  0  3  0  0  0
    0.7520    1.9450   -1.0040 C   0  0
   -2.0960   -0.6990   -0.8690 C   0  0
    2.2660   -1.2210    1.1410 C   0  0  3  0  0  0
   -2.1150   -3.0490   -1.2560 O   0  0
   -1.8520   -1.8140   -1.8850 C   0  0
   -2.1910    1.8300   -0.7210 C   0  0
    1.5900   -1.0680    2.5040 C   0  0
    3.7910   -1.2150    1.2340 C   0  0
   -0.0510    3.1410   -0.4670 C   0  0
    0.1520   -1.5900    2.5120 C   0  0
   -1.4840    3.1620   -1.0160 C   0  0
   -1.3980    0.6760   -2.3480 H   0  0
    1.7270    1.9000   -0.5160 H   0  0
    0.9410    2.0740   -2.0700 H   0  0
   -3.1640   -0.5430   -0.7190 H   0  0
   -1.7930   -1.0120    0.1290 H   0  0
    1.9140   -2.1190    0.6350 H   0  0
   -1.9550   -3.7440   -1.9120 H   0  0
   -0.8110   -1.8160   -2.2110 H   0  0
   -2.5230   -1.7170   -2.7360 H   0  0
   -2.3240    1.7320    0.3590 H   0  0
   -3.1910    1.8460   -1.1510 H   0  0
    2.1800   -1.5550    3.2810 H   0  0
    1.6270   -0.0330    2.8400 H   0  0
    4.2600   -1.3030    0.2540 H   0  0
    4.1450   -2.0430    1.8480 H   0  0
    4.1470   -0.2890    1.6890 H   0  0
    0.4570    4.0720   -0.7190 H   0  0
   -0.0860    3.0960    0.6230 H   0  0
   -0.2050   -1.7190    3.5330 H   0  0
   -0.5100   -0.9000    1.9860 H   0  0
    0.0900   -2.5570    2.0120 H   0  0
   -1.4610    3.3340   -2.0920 H   0  0
   -2.0430    3.9900   -0.5780 H   0  0
  1  2  1  0
  1  3  1  0
  1  4  2  0
  2  5  1  0
  2  6  1  0
  5  7  1  0
  3  8  1  0
  9 10  1  0
  7 10  1  0
  5 11  1  0
  8 12  1  0
  8 13  1  0
  6 14  1  0
 12 15  1  0
 14 16  1  0
 11 16  1  0
  5 17  1  0
  6 18  1  0
  6 19  1  0
  7 20  1  0
  7 21  1  0
  8 22  1  0
  9 23  1  0
 10 24  1  0
 10 25  1  0
 11 26  1  0
 11 27  1  0
 12 28  1  0
 12 29  1  0
 13 30  1  0
 13 31  1  0
 13 32  1  0
 14 33  1  0
 14 34  1  0
 15 35  1  0
 15 36  1  0
 15 37  1  0
 16 38  1  0
 16 39  1  0
M  END
> <Name>
125,098

> <OBJECTID>
9223372221541711883

> <ActiveAidCount>
0

> <AtomChiralCount>
2

> <AtomChiralDefCount>
0

> <AtomChiralUndefCount>
2

> <BondChiralCount>
0

> <BondChiralDefCount>
0

> <BondChiralUndefCount>
0

> <CID>
125098

> <CanonicalSmiles>
CCC(C)OC(=O)N1CCCCC1CCO

> <Complexity>
220

> <CovalentUnitCount>
1

> <CreateDate>
2005/08/08 00:00

> <HeavyAtomCount>
16

> <HydrogenBondAcceptorCount>
3

> <HydrogenBondDonorCount>
1

> <IUPACName>
butan-2-yl 2-(2-hydroxyethyl)piperidine-1-carboxylate

> <InChI>
InChI=1S/C12H23NO3/c1-3-10(2)16-12(15)13-8-5-4-6-11(13)7-9-14/h10-11,14H,3-9H2,1-2H3

> <InChIKey>
QLHULAHOXSSASE-UHFFFAOYSA-N

> <IsomericSmiles>
CCC(C)OC(=O)N1CCCCC1CCO

> <IsotopeAtomCount>
0

> <MeSHHeading>
picaridin

> <MeSHTerm>
sec-butyl 2-(2-hydroxyethyl)piperidine-1-carboxylate
icaridin
KBR 3023
picaridin
Bayrepel
2-(2-hydroxyethyl)-1-piperidinecarboxylic acid 1-methylpropyl ester
Saltidin
1-(1-methylpropoxycarbonyl)-2-(2-hydroxyethyl)piperidine

> <MolecularFormula>
C12H23NO3

> <MolecularWeight>
229.32

> <RotatableBondCount>
5

> <Smiles>
C(=O)(OC(C)CC)N1CCCCC1CCO

> <SourceCategory>
Chemical Vendors
Legacy Depositors
Research and Development
Curation Efforts
Governmental Organizations
Subscription Services
Journal Publishers
NIH Initiatives

> <Synonym>
Icaridin
119515-38-7
Picaridin
Bayrepel
Icaridina
Icaridine
Pikaridin
Propidine
Cutter Advanced
sec-butyl 2-(2-hydroxyethyl)piperidine-1-carboxylate
Icaridin [INN]
Kbr 3023
Icaridine [INN-French]
Icaridinum [INN-Latin]
Icaridina [INN-Spanish]
HSDB 7374
1-Piperidinecarboxylic acid, 2-(2-hydroxyethyl)-, 1-methylpropyl ester
1-(1-Methylpropoxycarbonyl)-2-(2-hydroxyethyl)piperidine
1-Methylpropyl 2-(2-hydroxyethyl)-1-piperidinecarboxylate
1-Methylpropyl 2-(2-hydroxyethyl)piperidine-1-carboxylate
AK481273
butan-2-yl 2-(2-hydroxyethyl)piperidine-1-carboxylate
Icaridinum
CCRIS 8576
Picaridin-d3
Bayrepel-d3
Icaridin-d3
Icaridin (Picaridin)
AC1L2NZT
EC 423-210-8
DSSTox_CID_14227
DSSTox_RID_79127
DSSTox_GSID_34227
SCHEMBL135432
CHEMBL2104314
DTXSID0034227
CTK8F1256
KS-00000GEZ
EBD7294
CHEBI:143733
KBR 3023-d3
QLHULAHOXSSASE-UHFFFAOYSA-N
BCP21313
Tox21_301141
2-(2-Hydroxyethyl)-1-piperidinecarboxylic acid 1-methylpropyl ester
AN-478
MFCD01756488
AKOS005145519
AC-6795
DS-3268
RTC-020932
NCGC00163920-01
NCGC00163920-02
NCGC00163920-03
NCGC00255039-01
BC230981
CC-29460
SC-73531
LS-114717
TC-020932
CAS-119515-38-7
FT-0080465
FT-0602759
515I387
C-13271
I12-0503
sec-Butyl 2-(2-hydroxyethyl)piperidine-1-carboxyla
Picaridin; sec-Butyl 2-(2-hydroxyethyl)piperidine-1-carboxylate
2-(2-Hydroxyethyl)-1-piperidinecarboxylic Acid 1-Methyl-d3-propyl Ester
2-(2-Hydroxyethyl)-1-piperidinecarboxylic Acid 1-Methyl-propyl Ester
sec-Butyl 2-(2-hydroxyethyl)piperidine-1- carboxylate/icaridine (icaridine)

> <TPSA>
49.8

> <TotalAidCount>
243

> <TotalFormalCharge>
0

> <XLogP>
2

> <database>
PubChem Compound

> <matchingCount>
176

> <primaryID>
125098

> <queryTranslation>
7628[CompoundID] OR 244[CompoundID] OR 25059[CompoundID] OR 7618[CompoundID] OR 7641[CompoundID] OR 5053[CompoundID] OR 637511[CompoundID] OR 7714[CompoundID] OR 7762[CompoundID] OR 25429[CompoundID]
OR 8842[CompoundID] OR 7794[CompoundID] OR 637566[CompoundID] OR 7843[CompoundID] OR 174[CompoundID] OR 7870[CompoundID] OR 86102[CompoundID] OR 7888[CompoundID] OR 7896[CompoundID] OR 1140[CompoundID
] OR 8042[CompoundID] OR 8058[CompoundID] OR 8078[CompoundID] OR 8087[CompoundID] OR 8117[CompoundID] OR 8133[CompoundID] OR 115224[CompoundID] OR 8175[CompoundID] OR 8194[CompoundID] OR 445639[Compou
ndID] OR 4944[CompoundID] OR 8294[CompoundID] OR 93541[CompoundID] OR 8360[CompoundID] OR 8363[CompoundID] OR 656612[CompoundID] OR 125098[CompoundID] OR 3352[CompoundID] OR 3303913[CompoundID] OR 648
05[CompoundID] OR 31200[CompoundID] OR 1712058[CompoundID] OR 31236[CompoundID] OR 31239[CompoundID] OR 31265[CompoundID] OR 31266[CompoundID] OR 31276[CompoundID] OR 6950273[CompoundID] OR 518659[Com
poundID] OR 14896[CompoundID] OR 14798[CompoundID] OR 14829[CompoundID] OR 14830[CompoundID] OR 8635[CompoundID] OR 23266[CompoundID] OR 4284[CompoundID] OR 8693[CompoundID] OR 22311[CompoundID] OR 87
59[CompoundID] OR 8785[CompoundID] OR 2723810[CompoundID] OR 8857[CompoundID] OR 3893[CompoundID] OR 9936739[CompoundID] OR 516892[CompoundID] OR 5430[CompoundID] OR 9017[CompoundID] OR 15433[Compound
ID] OR 107720[CompoundID] OR 9552081[CompoundID] OR 164825[CompoundID] OR 10275455[CompoundID] OR 16666[CompoundID] OR 9839306[CompoundID] OR 5282227[CompoundID] OR 23676745[CompoundID] OR 32881[Compo
undID] OR 91581[CompoundID] OR 39800[CompoundID] OR 33344[CompoundID] OR 15962220[CompoundID] OR 33528[CompoundID] OR 5365075[CompoundID] OR 62829[CompoundID] OR 162381[CompoundID] OR 517202[CompoundI
D] OR 6433353[CompoundID] OR 2730[CompoundID] OR 5372405[CompoundID] OR 36081[CompoundID] OR 3120[CompoundID] OR 3017[CompoundID] OR 2969[CompoundID] OR 18827[CompoundID] OR 19518[CompoundID] OR 19658
[CompoundID] OR 38283[CompoundID] OR 2758[CompoundID] OR 10112[CompoundID] OR 10340[CompoundID] OR 712[CompoundID] OR 5794[CompoundID] OR 3347[CompoundID] OR 104150[CompoundID] OR 2912[CompoundID] OR
2450[CompoundID] OR 40326[CompoundID] OR 40585[CompoundID] OR 517055[CompoundID] OR 10913[CompoundID] OR 108242[CompoundID] OR 62097[CompoundID] OR 41679[CompoundID] OR 54680676[CompoundID] OR 62118[C
ompoundID] OR 753[CompoundID] OR 1030[CompoundID] OR 23673837[CompoundID] OR 54678504[CompoundID] OR 11442[CompoundID] OR 11463[CompoundID] OR 22230[CompoundID] OR 440917[CompoundID] OR 6054[CompoundI
D] OR 43234[CompoundID] OR 22629[CompoundID] OR 3039[CompoundID] OR 2735067[CompoundID] OR 6144[CompoundID] OR 702[CompoundID] OR 284[CompoundID] OR 176[CompoundID] OR 91688[CompoundID] OR 22947[Compo
undID] OR 47445[CompoundID] OR 1711973[CompoundID] OR 243[CompoundID] OR 10342051[CompoundID] OR 5281875[CompoundID] OR 3776[CompoundID] OR 6224[CompoundID] OR 104926[CompoundID] OR 8755[CompoundID] O
R 338[CompoundID] OR 123622[CompoundID] OR 23954[CompoundID] OR 6334[CompoundID] OR 2537[CompoundID] OR 24261[CompoundID] OR 23665760[CompoundID] OR 83975[CompoundID] OR 784[CompoundID] OR 24437[Compo
undID] OR 5360315[CompoundID] OR 311[CompoundID] OR 6549[CompoundID] OR 107689[CompoundID] OR 17100[CompoundID] OR 24976875[CompoundID] OR 6654[CompoundID] OR 71245[CompoundID] OR 6442842[CompoundID]
OR 62334[CompoundID] OR 54698175[CompoundID] OR 6328154[CompoundID] OR 24762[CompoundID] OR 440950[CompoundID] OR 7017[CompoundID] OR 5281873[CompoundID] OR 323[CompoundID] OR 5281167[CompoundID] OR 7
175[CompoundID] OR 7292[CompoundID] OR 6335613[CompoundID] OR 7456[CompoundID] OR 7462[CompoundID]

> <resultIndex>
43

> <resultRange>
1-176

> <textQuery>
7628,244,25059,7618,7641,5053,637511,7714,7762,25429,8842,7794,637566,7843,174,7870,86102,7888,7896,1140,8042,8058,8078,8087,8117,8133,115224,8175,8194,445639,4944,8294,93541,8360,8363,656612,125098,3
352,3303913,64805,31200,1712058,31236,31239,31265,31266,31276,6950273,518659,14896,14798,14829,14830,8635,23266,4284,8693,22311,8759,8785,2723810,8857,3893,9936739,516892,5430,9017,15433,107720,955208
1,164825,10275455,16666,9839306,5282227,23676745,32881,91581,39800,33344,15962220,33528,5365075,62829,162381,517202,6433353,2730,5372405,36081,3120,3017,2969,18827,19518,19658,38283,2758,10112,10340,7
12,5794,3347,104150,2912,2450,40326,40585,517055,10913,108242,62097,41679,54680676,62118,753,1030,23673837,54678504,11442,11463,22230,440917,6054,43234,22629,3039,2735067,6144,702,284,176,91688,22947,
47445,1711973,243,10342051,5281875,3776,6224,104926,8755,338,123622,23954,6334,2537,24261,23665760,83975,784,24437,5360315,311,6549,107689,17100,24976875,6654,71245,6442842,62334,54698175,6328154,2476
2,440950,7017,5281873,323,5281167,7175,7292,6335613,7456,7462

$$$$
123,622
  SciTegic10191915303D

 45 46  0  0  1  0            999 V2000
    0.3400   -0.9100    1.0250 O   0  0
    2.3830   -1.3930    1.8130 O   0  0
   -0.5290    2.8050    2.3300 O   0  0
   -2.3940   -1.3520    1.9960 O   0  0
   -1.0980    0.5650    2.1580 N   0  0
   -2.7420    2.1310    2.2460 N   0  0
    2.9570   -2.2500   -1.1090 C   0  0
    1.7230   -2.4100   -0.2380 C   0  0  3  0  0  0
    1.5920   -1.8400   -1.6370 C   0  0  3  0  0  0
    1.5220   -1.5210    0.9750 C   0  0
    1.2580   -0.3730   -1.8400 C   0  0
    3.9630   -1.1580   -0.7600 C   0  0
    3.5740   -3.5180   -1.6860 C   0  0
   -1.3630    1.9320    2.2540 C   0  0
   -2.3090   -0.1500    2.0880 C   0  0
    0.2340   -0.0310    2.1370 C   0  0
   -0.0120    0.0040   -2.0620 C   0  0
   -3.4450    0.8540    2.1470 C   0  0
   -3.4200    3.4200    2.3280 C   0  0
   -1.0880   -1.0470   -2.0270 C   0  0
   -0.2930    1.4570   -2.3360 C   0  0
   -3.3610    4.1410    1.0590 C   0  0
   -3.3140    4.7270    0.0230 C   0  0
    1.3560   -3.4300   -0.1050 H   0  0
    1.1430   -2.5020   -2.3790 H   0  0
    2.0880    0.3180   -1.7930 H   0  0
    3.4880   -0.3140   -0.2580 H   0  0
    4.4510   -0.7810   -1.6580 H   0  0
    4.7360   -1.5450   -0.0980 H   0  0
    2.8200   -4.2680   -1.9200 H   0  0
    4.2760   -3.9610   -0.9770 H   0  0
    4.1230   -3.2970   -2.6020 H   0  0
    0.9830    0.7540    2.0220 H   0  0
    0.3890   -0.6110    3.0470 H   0  0
   -4.0490    0.8150    1.2500 H   0  0
   -4.0660    0.6880    3.0140 H   0  0
   -2.9590    4.0250    3.1090 H   0  0
   -4.4610    3.2680    2.6110 H   0  0
   -0.9320   -1.8070   -1.2620 H   0  0
   -1.1440   -1.5530   -2.9920 H   0  0
   -2.0570   -0.5800   -1.8400 H   0  0
    0.5550    1.9080   -2.8520 H   0  0
   -1.2130    1.5550   -2.9140 H   0  0
   -0.4340    1.9900   -1.3960 H   0  0
   -3.2710    5.2460   -0.8930 H   0  0
  1 10  1  0
  1 16  1  0
  2 10  2  0
  3 14  2  0
  4 15  2  0
  5 14  1  0
  5 15  1  0
  5 16  1  0
  6 14  1  0
  6 18  1  0
  6 19  1  0
  7  8  1  0
  7  9  1  0
  7 12  1  0
  7 13  1  0
  8  9  1  0
  8 10  1  0
  9 11  1  0
 11 17  2  0
 15 18  1  0
 17 20  1  0
 17 21  1  0
 19 22  1  0
 22 23  3  0
  8 24  1  0
  9 25  1  0
 11 26  1  0
 12 27  1  0
 12 28  1  0
 12 29  1  0
 13 30  1  0
 13 31  1  0
 13 32  1  0
 16 33  1  0
 16 34  1  0
 18 35  1  0
 18 36  1  0
 19 37  1  0
 19 38  1  0
 20 39  1  0
 20 40  1  0
 20 41  1  0
 21 42  1  0
 21 43  1  0
 21 44  1  0
 23 45  1  0
M  END
> <Name>
123,622

> <OBJECTID>
9223372225836679179

> <ActiveAidCount>
0

> <AtomChiralCount>
2

> <AtomChiralDefCount>
0

> <AtomChiralUndefCount>
2

> <BondChiralCount>
0

> <BondChiralDefCount>
0

> <BondChiralUndefCount>
0

> <CID>
123622

> <CanonicalSmiles>
CC(=CC1C(C1(C)C)C(=O)OCN2C(=O)CN(C2=O)CC#C)C

> <Complexity>
622

> <CovalentUnitCount>
1

> <CreateDate>
2005/06/24 00:00

> <HeavyAtomCount>
23

> <HydrogenBondAcceptorCount>
4

> <HydrogenBondDonorCount>
0

> <IUPACName>
(2,5-dioxo-3-prop-2-ynylimidazolidin-1-yl)methyl 2,2-dimethyl-3-(2-methylprop-1-enyl)cyclopropane-1-carboxylate

> <InChI>
InChI=1S/C17H22N2O4/c1-6-7-18-9-13(20)19(16(18)22)10-23-15(21)14-12(8-11(2)3)17(14,4)5/h1,8,12,14H,7,9-10H2,2-5H3

> <InChIKey>
VPRAQYXPZIFIOH-UHFFFAOYSA-N

> <IsomericSmiles>
CC(=CC1C(C1(C)C)C(=O)OCN2C(=O)CN(C2=O)CC#C)C

> <IsotopeAtomCount>
0

> <MeSHHeading>
imiprothrin

> <MeSHTerm>
imiprothrin

> <MolecularFormula>
C17H22N2O4

> <MolecularWeight>
318.4

> <RotatableBondCount>
6

> <Smiles>
O(CN1C(CN(CC#C)C1=O)=O)C(C2C(\C=C(/C)\C)C2(C)C)=O

> <SourceCategory>
Legacy Depositors
Chemical Vendors
Research and Development
Curation Efforts
Governmental Organizations
NIH Initiatives
Subscription Services
Journal Publishers

> <Synonym>
Imiprothrin
72963-72-5
Pralle
VPRAQYXPZIFIOH-UHFFFAOYSA-N
Q-201236
imiprothrin(jan)
Pralle T
(2,5-dioxo-3-prop-2-ynylimidazolidin-1-yl)methyl 2,2-dimethyl-3-(2-methylprop-1-enyl)cyclopropane-1-carboxylate
Imiprothrin [ISO]
HSDB 7003
Imiprothrin (JAN)
EPA Pesticide Chemical Code 004006
S 4056F
AC1L3WZS
EC 428-790-6
AC1Q68JO
S 41311
SCHEMBL25197
MLS004712061
DTXSID8034669
CHEBI:39389
AN-37384
CC-29496
M570
SMR001827834
2-Propargylsuccinimidylmethyl chrysanthemate
FT-0630817
D01889
Imiprothrin, PESTANAL(R), analytical standard
963I725
C-19566
(2,4-Dioxo-(2-propyn-1-yl)imidazolidin-3-yl)methyl(1R)-trans-chrysanthemate
((2,5-dioxo-3-prop-2-ynylimidazolidin-1-yl)methyl 2,2-dimethyl-3-(2-methylprop-1-enyl)cyclopropane-1-carboxylate)
(2,5-dioxo-3-(prop-2-ynyl)imidazolidin-1-yl)methyl 2,2-dimethyl-3-(2-methylprop-1-enyl)cyclopropanecarboxylate
(2,5-dioxo-3-prop-2-yn-1-ylimidazolidin-1-yl)methyl 2,2-dimethyl-3-(2-methylprop-1-en-1-yl)cyclopropanecarboxylate
(2,5-dioxo-3-prop-2-ynyl-imidazolidin-1-yl)methyl 2,2-dimethyl-3-(2-methylprop-1-enyl)cyclopropanecarboxylate
2,5-DIOXO-3-PROP-2-YNYLIMIDAZOLIDIN-1-YLMETHYL (1R,3R)-2,2-DIMETHYL-3-(2-METHYLPROP-1-ENYL)CYCLOPROPANECARBOXYLATE
Cyclopropanecarboxylic acid, 2,2-dimethyl-3-(2-methyl-1-propenyl)-, (2,5-dioxo-3-(2-propynyl)-1-imidazolidinyl)methyl ester

> <TPSA>
66.9

> <TotalAidCount>
3

> <TotalFormalCharge>
0

> <XLogP>
2.1

> <database>
PubChem Compound

> <matchingCount>
176

> <primaryID>
123622

> <queryTranslation>
7628[CompoundID] OR 244[CompoundID] OR 25059[CompoundID] OR 7618[CompoundID] OR 7641[CompoundID] OR 5053[CompoundID] OR 637511[CompoundID] OR 7714[CompoundID] OR 7762[CompoundID] OR 25429[CompoundID]
OR 8842[CompoundID] OR 7794[CompoundID] OR 637566[CompoundID] OR 7843[CompoundID] OR 174[CompoundID] OR 7870[CompoundID] OR 86102[CompoundID] OR 7888[CompoundID] OR 7896[CompoundID] OR 1140[CompoundID
] OR 8042[CompoundID] OR 8058[CompoundID] OR 8078[CompoundID] OR 8087[CompoundID] OR 8117[CompoundID] OR 8133[CompoundID] OR 115224[CompoundID] OR 8175[CompoundID] OR 8194[CompoundID] OR 445639[Compou
ndID] OR 4944[CompoundID] OR 8294[CompoundID] OR 93541[CompoundID] OR 8360[CompoundID] OR 8363[CompoundID] OR 656612[CompoundID] OR 125098[CompoundID] OR 3352[CompoundID] OR 3303913[CompoundID] OR 648
05[CompoundID] OR 31200[CompoundID] OR 1712058[CompoundID] OR 31236[CompoundID] OR 31239[CompoundID] OR 31265[CompoundID] OR 31266[CompoundID] OR 31276[CompoundID] OR 6950273[CompoundID] OR 518659[Com
poundID] OR 14896[CompoundID] OR 14798[CompoundID] OR 14829[CompoundID] OR 14830[CompoundID] OR 8635[CompoundID] OR 23266[CompoundID] OR 4284[CompoundID] OR 8693[CompoundID] OR 22311[CompoundID] OR 87
59[CompoundID] OR 8785[CompoundID] OR 2723810[CompoundID] OR 8857[CompoundID] OR 3893[CompoundID] OR 9936739[CompoundID] OR 516892[CompoundID] OR 5430[CompoundID] OR 9017[CompoundID] OR 15433[Compound
ID] OR 107720[CompoundID] OR 9552081[CompoundID] OR 164825[CompoundID] OR 10275455[CompoundID] OR 16666[CompoundID] OR 9839306[CompoundID] OR 5282227[CompoundID] OR 23676745[CompoundID] OR 32881[Compo
undID] OR 91581[CompoundID] OR 39800[CompoundID] OR 33344[CompoundID] OR 15962220[CompoundID] OR 33528[CompoundID] OR 5365075[CompoundID] OR 62829[CompoundID] OR 162381[CompoundID] OR 517202[CompoundI
D] OR 6433353[CompoundID] OR 2730[CompoundID] OR 5372405[CompoundID] OR 36081[CompoundID] OR 3120[CompoundID] OR 3017[CompoundID] OR 2969[CompoundID] OR 18827[CompoundID] OR 19518[CompoundID] OR 19658
[CompoundID] OR 38283[CompoundID] OR 2758[CompoundID] OR 10112[CompoundID] OR 10340[CompoundID] OR 712[CompoundID] OR 5794[CompoundID] OR 3347[CompoundID] OR 104150[CompoundID] OR 2912[CompoundID] OR
2450[CompoundID] OR 40326[CompoundID] OR 40585[CompoundID] OR 517055[CompoundID] OR 10913[CompoundID] OR 108242[CompoundID] OR 62097[CompoundID] OR 41679[CompoundID] OR 54680676[CompoundID] OR 62118[C
ompoundID] OR 753[CompoundID] OR 1030[CompoundID] OR 23673837[CompoundID] OR 54678504[CompoundID] OR 11442[CompoundID] OR 11463[CompoundID] OR 22230[CompoundID] OR 440917[CompoundID] OR 6054[CompoundI
D] OR 43234[CompoundID] OR 22629[CompoundID] OR 3039[CompoundID] OR 2735067[CompoundID] OR 6144[CompoundID] OR 702[CompoundID] OR 284[CompoundID] OR 176[CompoundID] OR 91688[CompoundID] OR 22947[Compo
undID] OR 47445[CompoundID] OR 1711973[CompoundID] OR 243[CompoundID] OR 10342051[CompoundID] OR 5281875[CompoundID] OR 3776[CompoundID] OR 6224[CompoundID] OR 104926[CompoundID] OR 8755[CompoundID] O
R 338[CompoundID] OR 123622[CompoundID] OR 23954[CompoundID] OR 6334[CompoundID] OR 2537[CompoundID] OR 24261[CompoundID] OR 23665760[CompoundID] OR 83975[CompoundID] OR 784[CompoundID] OR 24437[Compo
undID] OR 5360315[CompoundID] OR 311[CompoundID] OR 6549[CompoundID] OR 107689[CompoundID] OR 17100[CompoundID] OR 24976875[CompoundID] OR 6654[CompoundID] OR 71245[CompoundID] OR 6442842[CompoundID]
OR 62334[CompoundID] OR 54698175[CompoundID] OR 6328154[CompoundID] OR 24762[CompoundID] OR 440950[CompoundID] OR 7017[CompoundID] OR 5281873[CompoundID] OR 323[CompoundID] OR 5281167[CompoundID] OR 7
175[CompoundID] OR 7292[CompoundID] OR 6335613[CompoundID] OR 7456[CompoundID] OR 7462[CompoundID]

> <resultIndex>
44

> <resultRange>
1-176

> <textQuery>
7628,244,25059,7618,7641,5053,637511,7714,7762,25429,8842,7794,637566,7843,174,7870,86102,7888,7896,1140,8042,8058,8078,8087,8117,8133,115224,8175,8194,445639,4944,8294,93541,8360,8363,656612,125098,3
352,3303913,64805,31200,1712058,31236,31239,31265,31266,31276,6950273,518659,14896,14798,14829,14830,8635,23266,4284,8693,22311,8759,8785,2723810,8857,3893,9936739,516892,5430,9017,15433,107720,955208
1,164825,10275455,16666,9839306,5282227,23676745,32881,91581,39800,33344,15962220,33528,5365075,62829,162381,517202,6433353,2730,5372405,36081,3120,3017,2969,18827,19518,19658,38283,2758,10112,10340,7
12,5794,3347,104150,2912,2450,40326,40585,517055,10913,108242,62097,41679,54680676,62118,753,1030,23673837,54678504,11442,11463,22230,440917,6054,43234,22629,3039,2735067,6144,702,284,176,91688,22947,
47445,1711973,243,10342051,5281875,3776,6224,104926,8755,338,123622,23954,6334,2537,24261,23665760,83975,784,24437,5360315,311,6549,107689,17100,24976875,6654,71245,6442842,62334,54698175,6328154,2476
2,440950,7017,5281873,323,5281167,7175,7292,6335613,7456,7462

$$$$
115,224
  SciTegic10191915303D

 25 26  0  0  0  0            999 V2000
    1.1830    1.5640    1.1970 C   0  0
    2.5760    1.7460    1.2420 C   0  0
    2.9060   -0.6490    1.3460 N   0  0
    3.4200    0.6170    1.3160 C   0  0
    1.5540   -0.8340    1.3010 C   0  0
    0.6660    0.2580    1.2250 C   0  0
    5.1190    0.8220    1.3730 Cl  0  0
   -1.8670   -0.4710   -2.6390 S   0  0
   -1.3640    0.3790   -1.2810 C   0  0
   -1.2310   -0.4400   -0.1470 N   0  0
   -1.9200   -2.0390   -1.8560 C   0  0
   -1.5610   -1.8440   -0.3750 C   0  0
   -0.8010    0.0290    1.1740 C   0  0
   -1.1120    1.6350   -1.2190 N   0  0
   -1.2420    2.3770   -2.2790 C   0  0
   -1.3580    3.0390   -3.2250 N   0  0
    0.5230    2.4200    1.1410 H   0  0
    2.9860    2.7460    1.2210 H   0  0
    1.1620   -1.8400    1.3240 H   0  0
   -1.2250   -2.7010   -2.3540 H   0  0
   -2.8970   -2.4790   -1.9900 H   0  0
   -0.7210   -2.4650   -0.0980 H   0  0
   -2.3930   -2.1210    0.2560 H   0  0
   -1.3230    0.9570    1.4180 H   0  0
   -1.0820   -0.7050    1.9300 H   0  0
  1  2  2  0
  1  6  1  0
  2  4  1  0
  3  4  2  0
  3  5  1  0
  4  7  1  0
  5  6  2  0
  6 13  1  0
  8  9  1  0
  8 11  1  0
  9 10  1  0
  9 14  2  3
 10 12  1  0
 10 13  1  0
 11 12  1  0
 14 15  1  0
 15 16  3  0
  1 17  1  0
  2 18  1  0
  5 19  1  0
 11 20  1  0
 11 21  1  0
 12 22  1  0
 12 23  1  0
 13 24  1  0
 13 25  1  0
M  END
> <Name>
115,224

> <OBJECTID>
9223372230131646475

> <ActiveAidCount>
21

> <AtomChiralCount>
0

> <AtomChiralDefCount>
0

> <AtomChiralUndefCount>
0

> <BondChiralCount>
0

> <BondChiralDefCount>
0

> <BondChiralUndefCount>
0

> <CID>
115224

> <CanonicalSmiles>
C1CSC(=NC#N)N1CC2=CN=C(C=C2)Cl

> <Complexity>
324

> <CovalentUnitCount>
1

> <CreateDate>
2005/08/08 00:00

> <HeavyAtomCount>
16

> <HydrogenBondAcceptorCount>
4

> <HydrogenBondDonorCount>
0

> <IUPACName>
[3-[(6-chloropyridin-3-yl)methyl]-1,3-thiazolidin-2-ylidene]cyanamide

> <InChI>
InChI=1S/C10H9ClN4S/c11-9-2-1-8(5-13-9)6-15-3-4-16-10(15)14-7-12/h1-2,5H,3-4,6H2

> <InChIKey>
HOKKPVIRMVDYPB-UHFFFAOYSA-N

> <IsomericSmiles>
C1CSC(=NC#N)N1CC2=CN=C(C=C2)Cl

> <IsotopeAtomCount>
0

> <MeSHHeading>
thiacloprid

> <MeSHTerm>
3-((6-chloro-3-pyridinyl)methyl)-2-thiazolidinylidene cyanamide
thiacloprid
calypso

> <MolecularFormula>
C10H9ClN4S

> <MolecularWeight>
252.72

> <PharmAction>
Agrochemicals
Pesticides
Specialty Uses of Chemicals
Toxic Actions
Chemical Actions and Uses
Insecticides

> <RotatableBondCount>
2

> <Smiles>
c1c(CN(CCS2)C2=NC#N)cnc(Cl)c1

> <SourceCategory>
Legacy Depositors
Chemical Vendors
Curation Efforts
Governmental Organizations
NIH Initiatives
Subscription Services
Journal Publishers
Research and Development

> <Synonym>
Thiacloprid
111988-49-9
Calypso
Calypso 70WG
(3-((6-Chloro-3-pyridinyl)methyl)-2-thiazolidinylidene)cyanamide
Thiacloprid [ISO:BSI]
(Z)-thiacloprid
UNII-DSV3A944A4
HSDB 7268
{(2Z)-3-[(6-chloropyridin-3-yl)methyl]-1,3-thiazolidin-2-ylidene}cyanamide
CHEMBL451432
DSV3A944A4
CHEBI:39176
(Z)-N-(3-((6-Chloropyridin-3-yl)methyl)thiazolidin-2-ylidene)cyanamide
Cyanamide, [3-[(6-chloro-3-pyridinyl)methyl]-2-thiazolidinylidene]-
[3-(6-Chloro-3-pyridinylmethyl)-2-thiazolidinylidene]cyanamide
[3-[(6-chloro-3-pyridinyl)methyl]-2-thiazolidinylidene]cyanamide
Cyanamide, (3-((6-chloro-3-pyridinyl)methyl)-2-thiazolidinylidene)-
[3-[(6-chloropyridin-3-yl)methyl]-1,3-thiazolidin-2-ylidene]cyanamide
{3-[(6-chloropyridin-3-yl)methyl]-1,3-thiazolidin-2-ylidene}cyanamide
(Z)-[3-[(6-chloropyridin-3-yl)methyl]-1,3-thiazolidin-2-ylidene]cyanamide
AC1L3GRE
DSSTox_CID_14961
DSSTox_RID_79228
DSSTox_GSID_34961
SCHEMBL26490
SCHEMBL26491
SCHEMBL237347
DTXSID7034961
CHEBI:39175
CTK8G5807
3c84
Tox21_300697
BDBM50251868
MFCD09028056
ZINC13828082
AKOS015897524
ZINC100057010
ZINC255976955
DB08620
NCGC00164441-01
NCGC00164441-02
NCGC00164441-03
NCGC00164441-04
NCGC00254605-01
AN-33491
AS-35094
AT-19629
LS-55758
Thiacloprid 10 microg/mL in Acetonitrile
CAS-111988-49-9
FT-0657423
C18512
Thiacloprid, PESTANAL(R), analytical standard
988T499
A802461
I09-1199
J-002682
Thiacloprid, certified reference material, TraceCERT(R)
[3-[(6-chloro-3-pyridyl)methyl]thiazolidin-2-ylidene]cyanamide
(E)-N-(3-((6-chloropyridin-3-yl)methyl)thiazolidin-2-ylidene)cyanamide
(Z)-3-(6-chloro-3-pyridylmethyl)-1,3-thiazolidin-2-ylidenecyanamide
[3-[(6-chloranylpyridin-3-yl)methyl]-1,3-thiazolidin-2-ylidene]cyanamide
N-(3-(6-chloro-pyridin-3-ylmethyl)-thiazolidin-2-ylidene)-cyanamide
Pesticide5_Thiacloprid_C10H9ClN4S_Cyanamide, N-[(2Z)-3-[(6-chloro-3-pyridinyl)methyl]-2-thiazolidinylidene]-

> <TPSA>
77.6

> <TotalAidCount>
348

> <TotalFormalCharge>
0

> <XLogP>
2.2

> <database>
PubChem Compound

> <matchingCount>
176

> <primaryID>
115224

> <queryTranslation>
7628[CompoundID] OR 244[CompoundID] OR 25059[CompoundID] OR 7618[CompoundID] OR 7641[CompoundID] OR 5053[CompoundID] OR 637511[CompoundID] OR 7714[CompoundID] OR 7762[CompoundID] OR 25429[CompoundID]
OR 8842[CompoundID] OR 7794[CompoundID] OR 637566[CompoundID] OR 7843[CompoundID] OR 174[CompoundID] OR 7870[CompoundID] OR 86102[CompoundID] OR 7888[CompoundID] OR 7896[CompoundID] OR 1140[CompoundID
] OR 8042[CompoundID] OR 8058[CompoundID] OR 8078[CompoundID] OR 8087[CompoundID] OR 8117[CompoundID] OR 8133[CompoundID] OR 115224[CompoundID] OR 8175[CompoundID] OR 8194[CompoundID] OR 445639[Compou
ndID] OR 4944[CompoundID] OR 8294[CompoundID] OR 93541[CompoundID] OR 8360[CompoundID] OR 8363[CompoundID] OR 656612[CompoundID] OR 125098[CompoundID] OR 3352[CompoundID] OR 3303913[CompoundID] OR 648
05[CompoundID] OR 31200[CompoundID] OR 1712058[CompoundID] OR 31236[CompoundID] OR 31239[CompoundID] OR 31265[CompoundID] OR 31266[CompoundID] OR 31276[CompoundID] OR 6950273[CompoundID] OR 518659[Com
poundID] OR 14896[CompoundID] OR 14798[CompoundID] OR 14829[CompoundID] OR 14830[CompoundID] OR 8635[CompoundID] OR 23266[CompoundID] OR 4284[CompoundID] OR 8693[CompoundID] OR 22311[CompoundID] OR 87
59[CompoundID] OR 8785[CompoundID] OR 2723810[CompoundID] OR 8857[CompoundID] OR 3893[CompoundID] OR 9936739[CompoundID] OR 516892[CompoundID] OR 5430[CompoundID] OR 9017[CompoundID] OR 15433[Compound
ID] OR 107720[CompoundID] OR 9552081[CompoundID] OR 164825[CompoundID] OR 10275455[CompoundID] OR 16666[CompoundID] OR 9839306[CompoundID] OR 5282227[CompoundID] OR 23676745[CompoundID] OR 32881[Compo
undID] OR 91581[CompoundID] OR 39800[CompoundID] OR 33344[CompoundID] OR 15962220[CompoundID] OR 33528[CompoundID] OR 5365075[CompoundID] OR 62829[CompoundID] OR 162381[CompoundID] OR 517202[CompoundI
D] OR 6433353[CompoundID] OR 2730[CompoundID] OR 5372405[CompoundID] OR 36081[CompoundID] OR 3120[CompoundID] OR 3017[CompoundID] OR 2969[CompoundID] OR 18827[CompoundID] OR 19518[CompoundID] OR 19658
[CompoundID] OR 38283[CompoundID] OR 2758[CompoundID] OR 10112[CompoundID] OR 10340[CompoundID] OR 712[CompoundID] OR 5794[CompoundID] OR 3347[CompoundID] OR 104150[CompoundID] OR 2912[CompoundID] OR
2450[CompoundID] OR 40326[CompoundID] OR 40585[CompoundID] OR 517055[CompoundID] OR 10913[CompoundID] OR 108242[CompoundID] OR 62097[CompoundID] OR 41679[CompoundID] OR 54680676[CompoundID] OR 62118[C
ompoundID] OR 753[CompoundID] OR 1030[CompoundID] OR 23673837[CompoundID] OR 54678504[CompoundID] OR 11442[CompoundID] OR 11463[CompoundID] OR 22230[CompoundID] OR 440917[CompoundID] OR 6054[CompoundI
D] OR 43234[CompoundID] OR 22629[CompoundID] OR 3039[CompoundID] OR 2735067[CompoundID] OR 6144[CompoundID] OR 702[CompoundID] OR 284[CompoundID] OR 176[CompoundID] OR 91688[CompoundID] OR 22947[Compo
undID] OR 47445[CompoundID] OR 1711973[CompoundID] OR 243[CompoundID] OR 10342051[CompoundID] OR 5281875[CompoundID] OR 3776[CompoundID] OR 6224[CompoundID] OR 104926[CompoundID] OR 8755[CompoundID] O
R 338[CompoundID] OR 123622[CompoundID] OR 23954[CompoundID] OR 6334[CompoundID] OR 2537[CompoundID] OR 24261[CompoundID] OR 23665760[CompoundID] OR 83975[CompoundID] OR 784[CompoundID] OR 24437[Compo
undID] OR 5360315[CompoundID] OR 311[CompoundID] OR 6549[CompoundID] OR 107689[CompoundID] OR 17100[CompoundID] OR 24976875[CompoundID] OR 6654[CompoundID] OR 71245[CompoundID] OR 6442842[CompoundID]
OR 62334[CompoundID] OR 54698175[CompoundID] OR 6328154[CompoundID] OR 24762[CompoundID] OR 440950[CompoundID] OR 7017[CompoundID] OR 5281873[CompoundID] OR 323[CompoundID] OR 5281167[CompoundID] OR 7
175[CompoundID] OR 7292[CompoundID] OR 6335613[CompoundID] OR 7456[CompoundID] OR 7462[CompoundID]

> <resultIndex>
45

> <resultRange>
1-176

> <textQuery>
7628,244,25059,7618,7641,5053,637511,7714,7762,25429,8842,7794,637566,7843,174,7870,86102,7888,7896,1140,8042,8058,8078,8087,8117,8133,115224,8175,8194,445639,4944,8294,93541,8360,8363,656612,125098,3
352,3303913,64805,31200,1712058,31236,31239,31265,31266,31276,6950273,518659,14896,14798,14829,14830,8635,23266,4284,8693,22311,8759,8785,2723810,8857,3893,9936739,516892,5430,9017,15433,107720,955208
1,164825,10275455,16666,9839306,5282227,23676745,32881,91581,39800,33344,15962220,33528,5365075,62829,162381,517202,6433353,2730,5372405,36081,3120,3017,2969,18827,19518,19658,38283,2758,10112,10340,7
12,5794,3347,104150,2912,2450,40326,40585,517055,10913,108242,62097,41679,54680676,62118,753,1030,23673837,54678504,11442,11463,22230,440917,6054,43234,22629,3039,2735067,6144,702,284,176,91688,22947,
47445,1711973,243,10342051,5281875,3776,6224,104926,8755,338,123622,23954,6334,2537,24261,23665760,83975,784,24437,5360315,311,6549,107689,17100,24976875,6654,71245,6442842,62334,54698175,6328154,2476
2,440950,7017,5281873,323,5281167,7175,7292,6335613,7456,7462

$$$$
108,242
  SciTegic10191915303D

 43 44  0  0  1  0            999 V2000
    4.3870    0.0290    0.0960 C   0  0
    3.0960   -0.6950   -0.1660 C   0  0
    3.0840   -1.7680   -0.7270 O   0  0
    1.8110   -0.0470    0.2910 C   0  0  3  0  0  0
    1.9000    0.0860    1.8180 C   0  0
    0.6070   -0.9320   -0.0920 C   0  0
   -0.7580   -0.2660    0.0470 C   0  0
   -0.8670    1.0880    0.1380 C   0  0
    0.3460    1.9980    0.1380 C   0  0
    1.6410    1.3400   -0.3620 C   0  0  3  0  0  0
    1.6560    1.2680   -1.8970 C   0  0
   -2.2090    1.7850    0.2520 C   0  0
   -3.3970    0.9100   -0.1510 C   0  0
   -3.2660   -0.4630    0.5060 C   0  0
   -1.9790   -1.1820    0.0530 C   0  0
   -1.7560   -2.3830    0.9820 C   0  0
   -2.1620   -1.7010   -1.3770 C   0  0
    5.2660   -0.5020   -0.2720 H   0  0
    4.5160    0.1840    1.1660 H   0  0
    4.3650    1.0080   -0.3830 H   0  0
    2.6450    0.8240    2.1190 H   0  0
    2.1720   -0.8650    2.2710 H   0  0
    0.9390    0.3930    2.2340 H   0  0
    0.6430   -1.8460    0.5000 H   0  0
    0.7070   -1.2540   -1.1290 H   0  0
    0.1370    2.8890   -0.4530 H   0  0
    0.4980    2.3560    1.1580 H   0  0
    2.4770    1.9770   -0.0670 H   0  0
    1.5680    2.2640   -2.3280 H   0  0
    2.5760    0.8050   -2.2520 H   0  0
    0.8200    0.6720   -2.2620 H   0  0
   -2.2070    2.6910   -0.3560 H   0  0
   -2.3360    2.1110    1.2850 H   0  0
   -3.4340    0.8010   -1.2350 H   0  0
   -4.3300    1.3870    0.1480 H   0  0
   -4.1430   -1.0700    0.2790 H   0  0
   -3.2600   -0.3320    1.5900 H   0  0
   -1.0370   -3.0900    0.5680 H   0  0
   -2.6910   -2.9200    1.1480 H   0  0
   -1.3830   -2.0570    1.9510 H   0  0
   -1.3090   -2.2910   -1.7090 H   0  0
   -2.2850   -0.8710   -2.0740 H   0  0
   -3.0490   -2.3300   -1.4470 H   0  0
  1  2  1  0
  2  3  2  0
  2  4  1  0
  4  5  1  0
  4  6  1  0
  4 10  1  0
  6  7  1  0
  7  8  2  0
  7 15  1  0
  8  9  1  0
  8 12  1  0
  9 10  1  0
 10 11  1  0
 12 13  1  0
 13 14  1  0
 14 15  1  0
 15 16  1  0
 15 17  1  0
  1 18  1  0
  1 19  1  0
  1 20  1  0
  5 21  1  0
  5 22  1  0
  5 23  1  0
  6 24  1  0
  6 25  1  0
  9 26  1  0
  9 27  1  0
 10 28  1  0
 11 29  1  0
 11 30  1  0
 11 31  1  0
 12 32  1  0
 12 33  1  0
 13 34  1  0
 13 35  1  0
 14 36  1  0
 14 37  1  0
 16 38  1  0
 16 39  1  0
 16 40  1  0
 17 41  1  0
 17 42  1  0
 17 43  1  0
M  END
> <Name>
108,242

> <OBJECTID>
9223372234426613771

> <ActiveAidCount>
7

> <AtomChiralCount>
2

> <AtomChiralDefCount>
0

> <AtomChiralUndefCount>
2

> <BondChiralCount>
0

> <BondChiralDefCount>
0

> <BondChiralUndefCount>
0

> <CID>
108242

> <CanonicalSmiles>
CC1CC2=C(CC1(C)C(=O)C)C(CCC2)(C)C

> <Complexity>
375

> <CovalentUnitCount>
1

> <CreateDate>
2005/08/08 00:00

> <HeavyAtomCount>
17

> <HydrogenBondAcceptorCount>
1

> <HydrogenBondDonorCount>
0

> <IUPACName>
1-(2,3,8,8-tetramethyl-1,3,4,5,6,7-hexahydronaphthalen-2-yl)ethanone

> <InChI>
InChI=1S/C16H26O/c1-11-9-13-7-6-8-15(3,4)14(13)10-16(11,5)12(2)17/h11H,6-10H2,1-5H3

> <InChIKey>
FVUGZKDGWGKCFE-UHFFFAOYSA-N

> <IsomericSmiles>
CC1CC2=C(CC1(C)C(=O)C)C(CCC2)(C)C

> <IsotopeAtomCount>
0

> <MeSHHeading>
1-(1,2,3,4,5,6,7,8-octahydro-2,3,8,8-tetramethyl-2-naphthalenyl)ethanone

> <MeSHTerm>
(1,2,3,4,5,6,7,8-octahydro-2,3,8,8-tetramethylnaphthalen-2yl)ethan-1-one
OHTMNE cpd
1-(1,2,3,4,5,6,7,8-octahydro-2,3,8,8-tetramethyl-2-naphthalenyl)ethanone

> <MolecularFormula>
C16H26O

> <MolecularWeight>
234.38

> <RotatableBondCount>
1

> <Smiles>
CC(C1(C(C)CC(CCCC2(C)C)=C2C1)C)=O

> <SourceCategory>
Legacy Depositors
Chemical Vendors
Research and Development
Curation Efforts
Governmental Organizations
Subscription Services
Journal Publishers
NIH Initiatives

> <Synonym>
54464-57-2
Isocyclemone E
1-(2,3,8,8-tetramethyl-1,2,3,4,5,6,7,8-octahydronaphthalen-2-yl)ethanone
Boisvelone
Iso-E super
Iso E Super
UNII-1GD7ODM28Y
Ethanone, 1-(1,2,3,4,5,6,7,8-octahydro-2,3,8,8-tetramethyl-2-naphthalenyl)-
EINECS 259-174-3
1GD7ODM28Y
1-(1,2,3,4,5,6,7,8-Octahydro-2,3,8,8-tetramethyl-2-naphthyl)ethan-1-one
2-Acetonaphthone, 1,2,3,4,5,6,7,8-octahydro-2,3,8,8-tetramethyl-
1-(1,2,3,4,5,6,7,8-Octahydro-2,3,8,8-tetramethyl-2-naphthalenyl)ethanone
1-(2,3,8,8-tetramethyl-1,3,4,5,6,7-hexahydronaphthalen-2-yl)ethanone
1',2',3',4',5',6',7',8'-Octahydro-2',3',8',8'-tetramethyl-2'-acetonaphthone
DSSTox_CID_11290
DSSTox_RID_78869
DSSTox_GSID_31290
W-111089
Ethanone,1-(1,2,3,4,5,6,7,8-octahydro-2,3,8,8-tetramethyl-2-naphthalenyl)-
CAS-54464-57-2
Derambrene
i-e-super
OTNE
AC1Q5CUV
AC1L33LQ
SCHEMBL111407
Amberix Super (Iso E Super)
CHEMBL1423553
DTXSID7031290
CTK5A1137
FVUGZKDGWGKCFE-UHFFFAOYSA-N
Tox21_201355
Tox21_303483
BBL028399
MFCD00217013
STL352821
AKOS015955684
MCULE-2137893098
Isocyclemone E (isomers sum min. 90%)
NCGC00090712-01
NCGC00090712-02
NCGC00257507-01
NCGC00258907-01
AM806777
AN-40510
LS-185877
FT-0670449
464T572
UNII-2JU6ZH6GRE component FVUGZKDGWGKCFE-UHFFFAOYSA-N
2-Acetonaphthone-1,2,3,4,5,6,7,8-octahydro-2,3,8,8-tetramethyl
7-acetyl-1,2,3,4,5,6,7,8-octahydro-1,1,6,7-tetramethyl-naphthalene
1-(2,3,8,8-tetramethyl-1,2,3,4,5,6,7,8-octahydro-naphthalen-2-yl)-ethanone

> <TPSA>
17.1

> <TotalAidCount>
360

> <TotalFormalCharge>
0

> <XLogP>
3.6

> <database>
PubChem Compound

> <matchingCount>
176

> <primaryID>
108242

> <queryTranslation>
7628[CompoundID] OR 244[CompoundID] OR 25059[CompoundID] OR 7618[CompoundID] OR 7641[CompoundID] OR 5053[CompoundID] OR 637511[CompoundID] OR 7714[CompoundID] OR 7762[CompoundID] OR 25429[CompoundID]
OR 8842[CompoundID] OR 7794[CompoundID] OR 637566[CompoundID] OR 7843[CompoundID] OR 174[CompoundID] OR 7870[CompoundID] OR 86102[CompoundID] OR 7888[CompoundID] OR 7896[CompoundID] OR 1140[CompoundID
] OR 8042[CompoundID] OR 8058[CompoundID] OR 8078[CompoundID] OR 8087[CompoundID] OR 8117[CompoundID] OR 8133[CompoundID] OR 115224[CompoundID] OR 8175[CompoundID] OR 8194[CompoundID] OR 445639[Compou
ndID] OR 4944[CompoundID] OR 8294[CompoundID] OR 93541[CompoundID] OR 8360[CompoundID] OR 8363[CompoundID] OR 656612[CompoundID] OR 125098[CompoundID] OR 3352[CompoundID] OR 3303913[CompoundID] OR 648
05[CompoundID] OR 31200[CompoundID] OR 1712058[CompoundID] OR 31236[CompoundID] OR 31239[CompoundID] OR 31265[CompoundID] OR 31266[CompoundID] OR 31276[CompoundID] OR 6950273[CompoundID] OR 518659[Com
poundID] OR 14896[CompoundID] OR 14798[CompoundID] OR 14829[CompoundID] OR 14830[CompoundID] OR 8635[CompoundID] OR 23266[CompoundID] OR 4284[CompoundID] OR 8693[CompoundID] OR 22311[CompoundID] OR 87
59[CompoundID] OR 8785[CompoundID] OR 2723810[CompoundID] OR 8857[CompoundID] OR 3893[CompoundID] OR 9936739[CompoundID] OR 516892[CompoundID] OR 5430[CompoundID] OR 9017[CompoundID] OR 15433[Compound
ID] OR 107720[CompoundID] OR 9552081[CompoundID] OR 164825[CompoundID] OR 10275455[CompoundID] OR 16666[CompoundID] OR 9839306[CompoundID] OR 5282227[CompoundID] OR 23676745[CompoundID] OR 32881[Compo
undID] OR 91581[CompoundID] OR 39800[CompoundID] OR 33344[CompoundID] OR 15962220[CompoundID] OR 33528[CompoundID] OR 5365075[CompoundID] OR 62829[CompoundID] OR 162381[CompoundID] OR 517202[CompoundI
D] OR 6433353[CompoundID] OR 2730[CompoundID] OR 5372405[CompoundID] OR 36081[CompoundID] OR 3120[CompoundID] OR 3017[CompoundID] OR 2969[CompoundID] OR 18827[CompoundID] OR 19518[CompoundID] OR 19658
[CompoundID] OR 38283[CompoundID] OR 2758[CompoundID] OR 10112[CompoundID] OR 10340[CompoundID] OR 712[CompoundID] OR 5794[CompoundID] OR 3347[CompoundID] OR 104150[CompoundID] OR 2912[CompoundID] OR
2450[CompoundID] OR 40326[CompoundID] OR 40585[CompoundID] OR 517055[CompoundID] OR 10913[CompoundID] OR 108242[CompoundID] OR 62097[CompoundID] OR 41679[CompoundID] OR 54680676[CompoundID] OR 62118[C
ompoundID] OR 753[CompoundID] OR 1030[CompoundID] OR 23673837[CompoundID] OR 54678504[CompoundID] OR 11442[CompoundID] OR 11463[CompoundID] OR 22230[CompoundID] OR 440917[CompoundID] OR 6054[CompoundI
D] OR 43234[CompoundID] OR 22629[CompoundID] OR 3039[CompoundID] OR 2735067[CompoundID] OR 6144[CompoundID] OR 702[CompoundID] OR 284[CompoundID] OR 176[CompoundID] OR 91688[CompoundID] OR 22947[Compo
undID] OR 47445[CompoundID] OR 1711973[CompoundID] OR 243[CompoundID] OR 10342051[CompoundID] OR 5281875[CompoundID] OR 3776[CompoundID] OR 6224[CompoundID] OR 104926[CompoundID] OR 8755[CompoundID] O
R 338[CompoundID] OR 123622[CompoundID] OR 23954[CompoundID] OR 6334[CompoundID] OR 2537[CompoundID] OR 24261[CompoundID] OR 23665760[CompoundID] OR 83975[CompoundID] OR 784[CompoundID] OR 24437[Compo
undID] OR 5360315[CompoundID] OR 311[CompoundID] OR 6549[CompoundID] OR 107689[CompoundID] OR 17100[CompoundID] OR 24976875[CompoundID] OR 6654[CompoundID] OR 71245[CompoundID] OR 6442842[CompoundID]
OR 62334[CompoundID] OR 54698175[CompoundID] OR 6328154[CompoundID] OR 24762[CompoundID] OR 440950[CompoundID] OR 7017[CompoundID] OR 5281873[CompoundID] OR 323[CompoundID] OR 5281167[CompoundID] OR 7
175[CompoundID] OR 7292[CompoundID] OR 6335613[CompoundID] OR 7456[CompoundID] OR 7462[CompoundID]

> <resultIndex>
46

> <resultRange>
1-176

> <textQuery>
7628,244,25059,7618,7641,5053,637511,7714,7762,25429,8842,7794,637566,7843,174,7870,86102,7888,7896,1140,8042,8058,8078,8087,8117,8133,115224,8175,8194,445639,4944,8294,93541,8360,8363,656612,125098,3
352,3303913,64805,31200,1712058,31236,31239,31265,31266,31276,6950273,518659,14896,14798,14829,14830,8635,23266,4284,8693,22311,8759,8785,2723810,8857,3893,9936739,516892,5430,9017,15433,107720,955208
1,164825,10275455,16666,9839306,5282227,23676745,32881,91581,39800,33344,15962220,33528,5365075,62829,162381,517202,6433353,2730,5372405,36081,3120,3017,2969,18827,19518,19658,38283,2758,10112,10340,7
12,5794,3347,104150,2912,2450,40326,40585,517055,10913,108242,62097,41679,54680676,62118,753,1030,23673837,54678504,11442,11463,22230,440917,6054,43234,22629,3039,2735067,6144,702,284,176,91688,22947,
47445,1711973,243,10342051,5281875,3776,6224,104926,8755,338,123622,23954,6334,2537,24261,23665760,83975,784,24437,5360315,311,6549,107689,17100,24976875,6654,71245,6442842,62334,54698175,6328154,2476
2,440950,7017,5281873,323,5281167,7175,7292,6335613,7456,7462

$$$$
107,720
  SciTegic10191915303D

 53 56  0  0  1  0            999 V2000
    6.2310   -2.2070   -1.1330 Cl  0  0
    2.5610    2.7580    4.6780 F   0  0
    1.4420    0.8500    4.3340 F   0  0
    0.3890    2.8160    4.1410 F   0  0
   -1.3440   -3.1500   -1.4550 O   0  0
   -0.7560   -1.9080    1.3770 O   0  0
   -0.3690   -4.1150    1.3220 O   0  0
   -3.7110    0.1910   -1.8320 O   0  0
   -2.2050    3.8710   -1.3160 O   0  0
   -3.5230    2.5660   -2.5720 O   0  0
    1.9160    2.2030    2.5630 O   0  0
   -0.5140   -0.5140   -1.2710 N   0  0
   -1.7380   -0.7230   -1.3120 N   0  0
   -2.1230    1.5980   -1.1270 N   0  0
   -0.1480   -2.9180   -0.7190 C   0  0  2  0  0  0
    0.2970   -1.4940   -1.0450 C   0  0
    1.7520   -1.5270   -1.0820 C   0  0
    2.2380   -2.8400   -1.0980 C   0  0
    1.0720   -3.8220   -1.1090 C   0  0
   -0.4350   -3.0450    0.7640 C   0  0
   -2.3260   -2.1190   -1.2560 C   0  0
    2.6290   -0.4140   -1.1150 C   0  0
    3.6450   -3.0390   -1.1090 C   0  0
   -2.5780    0.3480   -1.4430 C   0  0
    4.5370   -1.9400   -1.1250 C   0  0
    4.0260   -0.6210   -1.1350 C   0  0
   -1.1190    1.7480   -0.2090 C   0  0
   -2.6700    2.6950   -1.7270 C   0  0
    0.0220    2.5100   -0.5290 C   0  0
   -1.2230    1.1410    1.0570 C   0  0
   -1.0640   -2.1020    2.7500 C   0  0
    0.9490    2.0590    1.6800 C   0  0
    1.0510    2.6640    0.4160 C   0  0
   -0.1890    1.2970    1.9980 C   0  0
    1.5740    2.1560    3.9420 C   0  0
   -2.8180    4.9610   -1.9920 C   0  0
    1.2380   -4.6430   -0.4220 H   0  0
    0.9710   -4.2330   -2.1050 H   0  0
   -3.1000   -2.2360   -2.0140 H   0  0
   -2.7950   -2.2660   -0.2810 H   0  0
    2.2350    0.5920   -1.1250 H   0  0
    4.0260   -4.0510   -1.1090 H   0  0
    4.6900    0.2300   -1.1540 H   0  0
    0.1190    2.9840   -1.4960 H   0  0
   -2.0900    0.5530    1.3220 H   0  0
   -1.3530   -1.2170    3.3150 H   0  0
   -0.1930   -2.5390    3.2360 H   0  0
   -1.8790   -2.8220    2.8160 H   0  0
    1.9240    3.2500    0.1660 H   0  0
   -0.2730    0.8300    2.9690 H   0  0
   -2.4470    5.8870   -1.5530 H   0  0
   -2.6560    4.8340   -3.0630 H   0  0
   -3.8930    4.9140   -1.8110 H   0  0
  1 25  1  0
  2 35  1  0
  3 35  1  0
  4 35  1  0
  5 15  1  0
  5 21  1  0
  6 20  1  0
  6 31  1  0
  7 20  2  0
  8 24  2  0
  9 28  1  0
  9 36  1  0
 10 28  2  0
 11 32  1  0
 11 35  1  0
 12 13  1  0
 12 16  2  0
 13 21  1  0
 13 24  1  0
 14 24  1  0
 14 27  1  0
 14 28  1  0
 15 16  1  0
 15 19  1  0
 15 20  1  0
 16 17  1  0
 17 18  2  0
 17 22  1  0
 18 19  1  0
 18 23  1  0
 22 26  2  0
 23 25  2  0
 25 26  1  0
 27 29  2  0
 27 30  1  0
 29 33  1  0
 30 34  2  0
 32 33  2  0
 32 34  1  0
 19 37  1  0
 19 38  1  0
 21 39  1  0
 21 40  1  0
 22 41  1  0
 23 42  1  0
 26 43  1  0
 29 44  1  0
 30 45  1  0
 31 46  1  0
 31 47  1  0
 31 48  1  0
 33 49  1  0
 34 50  1  0
 36 51  1  0
 36 52  1  0
 36 53  1  0
M  END
> <Name>
107,720

> <OBJECTID>
9223372238721581067

> <ActiveAidCount>
30

> <AtomChiralCount>
1

> <AtomChiralDefCount>
1

> <AtomChiralUndefCount>
0

> <BondChiralCount>
0

> <BondChiralDefCount>
0

> <BondChiralUndefCount>
0

> <CID>
107720

> <CanonicalSmiles>
COC(=O)C12CC3=C(C1=NN(CO2)C(=O)N(C4=CC=C(C=C4)OC(F)(F)F)C(=O)OC)C=CC(=C3)Cl

> <Complexity>
912

> <CovalentUnitCount>
1

> <CreateDate>
2005/08/08 00:00

> <HeavyAtomCount>
36

> <HydrogenBondAcceptorCount>
11

> <HydrogenBondDonorCount>
0

> <IUPACName>
methyl (4aS)-7-chloro-2-[methoxycarbonyl-[4-(trifluoromethoxy)phenyl]carbamoyl]-3,5-dihydroindeno[1,2-e][1,3,4]oxadiazine-4a-carboxylate

> <InChI>
InChI=1S/C22H17ClF3N3O7/c1-33-18(30)21-10-12-9-13(23)3-8-16(12)17(21)27-28(11-35-21)19(31)29(20(32)34-2)14-4-6-15(7-5-14)36-22(24,25)26/h3-9H,10-11H2,1-2H3/t21-/m0/s1

> <InChIKey>
VBCVPMMZEGZULK-NRFANRHFSA-N

> <IsomericSmiles>
COC(=O)[C@]12CC3=C(C1=NN(CO2)C(=O)N(C4=CC=C(C=C4)OC(F)(F)F)C(=O)OC)C=CC(=C3)Cl

> <IsotopeAtomCount>
0

> <MeSHHeading>
indoxacarb

> <MeSHTerm>
DPX-MP062
indoxacarb

> <MolecularFormula>
C22H17ClF3N3O7

> <MolecularWeight>
527.8

> <RotatableBondCount>
5

> <Smiles>
Clc(cc1)cc(C2)c1C([C@]23C(=O)OC)=NN(C(N(C(=O)OC)c4ccc(cc4)OC(F)(F)F)=O)CO3

> <SourceCategory>
Legacy Depositors
Chemical Vendors
Curation Efforts
Governmental Organizations
NIH Initiatives
Subscription Services
Journal Publishers
Research and Development

> <Synonym>
Indoxacarb
Steward
173584-44-6
Provaunt
Advion
Avatar
Avaunt
Avent
Indoxacarb [ISO]
UNII-52H0D26MWR
DPX-KN 128
HSDB 7280
DPX-MP 062-381
52H0D26MWR
CHEBI:38630
methyl (4aS)-7-chloro-2-{(methoxycarbonyl)[4-(trifluoromethoxy)phenyl]carbamoyl}-2,5-dihydroindeno[1,2-e][1,3,4]oxadiazine-4a(3H)-carboxylate
Methyl (S)-7chloro-2,5-dihydro-2-(((methoxycarbonyl)(4-(trifluoromethoxy)phenyl)amino)carbonylindeno(1,2-e)(1,3,4)oxadiazine-4a(3H)-carboxylate
(+-)-Indoxacarb
Indeno(1,2-e)(1,3,4)oxadiazine-4a(3H)-carboxylic acid, 7-chloro-2,5-dihydro-2-(((methoxycarbonyl)(4-(trifluoromethoxy)phenyl)amino)carbonyl)-, methyl ester, (4aS)-
Methyl 7-chloro-2,5-dihydro-2-[N-(methoxycarbonyl)-4-(trifluoromethoxy)anilinocarbonyl]indeno[1,2-e][1,3,4]oxadiazine-4a(3H)carboxylate
indoxacarb-mp
C22H17ClF3N3O7
(S)-Indoxacarb
carprofen, vetranal
Indoxacarb (JAN)
AC1L32MM
DSSTox_CID_12690
DSSTox_RID_79034
DSSTox_GSID_32690
SCHEMBL22073
CHEMBL197676
DTXSID1032690
Tox21_300723
MFCD03792834
ZINC28527855
NCGC00164264-02
NCGC00164264-03
NCGC00254629-01
AS-35129
LS-81841
M576
CAS-173584-44-6
FT-0631195
Indoxacarb, PESTANAL(R), analytical standard
C18569
D06316
31414-EP2274983A1
31414-EP2305662A1
31414-EP2308857A1
31414-EP2308858A1
31414-EP2311816A1
31414-EP2311817A1
indeno[1,2-e][1,3,4}oxadiazine-4a(3h)carboxylic
UNII-PKL1F8Y0FV component VBCVPMMZEGZULK-NRFANRHFSA-N
(S)-methyl 7-chloro-2-(methoxycarbonyl(4-(trifluoromethoxy)phenyl)carbamoyl)-2,3,4a,5-tetrahydroindeno[1,2-e][1,3,4]oxadiazine-4a-carboxylate
indeno[1,2-e][1,3,4}oxadiazine-4a(3h)carboxylicacid,7-chloro-2,5-dihydro-2-[[(methoxycarbonyl)[4-(t
methyl (4aS)-7-chloro-2-[methoxycarbonyl-[4-(trifluoromethoxy)phenyl]carbamoyl]-3,5-dihydroindeno[1,2-e][1,3,4]oxadiazine-4a-carboxylate
Pesticide3_Indoxacarb_C22H17ClF3N3O7_Methyl (4aS)-7-chloro-2-{(methoxycarbonyl)[4-(trifluoromethoxy)phenyl]carbamoyl}-2,5-dihydroindeno[1,2-e][1,3,4]oxadiazine-4a(3H)-carboxylate

> <TPSA>
107

> <TotalAidCount>
245

> <TotalFormalCharge>
0

> <XLogP>
4.8

> <database>
PubChem Compound

> <matchingCount>
176

> <primaryID>
107720

> <queryTranslation>
7628[CompoundID] OR 244[CompoundID] OR 25059[CompoundID] OR 7618[CompoundID] OR 7641[CompoundID] OR 5053[CompoundID] OR 637511[CompoundID] OR 7714[CompoundID] OR 7762[CompoundID] OR 25429[CompoundID]
OR 8842[CompoundID] OR 7794[CompoundID] OR 637566[CompoundID] OR 7843[CompoundID] OR 174[CompoundID] OR 7870[CompoundID] OR 86102[CompoundID] OR 7888[CompoundID] OR 7896[CompoundID] OR 1140[CompoundID
] OR 8042[CompoundID] OR 8058[CompoundID] OR 8078[CompoundID] OR 8087[CompoundID] OR 8117[CompoundID] OR 8133[CompoundID] OR 115224[CompoundID] OR 8175[CompoundID] OR 8194[CompoundID] OR 445639[Compou
ndID] OR 4944[CompoundID] OR 8294[CompoundID] OR 93541[CompoundID] OR 8360[CompoundID] OR 8363[CompoundID] OR 656612[CompoundID] OR 125098[CompoundID] OR 3352[CompoundID] OR 3303913[CompoundID] OR 648
05[CompoundID] OR 31200[CompoundID] OR 1712058[CompoundID] OR 31236[CompoundID] OR 31239[CompoundID] OR 31265[CompoundID] OR 31266[CompoundID] OR 31276[CompoundID] OR 6950273[CompoundID] OR 518659[Com
poundID] OR 14896[CompoundID] OR 14798[CompoundID] OR 14829[CompoundID] OR 14830[CompoundID] OR 8635[CompoundID] OR 23266[CompoundID] OR 4284[CompoundID] OR 8693[CompoundID] OR 22311[CompoundID] OR 87
59[CompoundID] OR 8785[CompoundID] OR 2723810[CompoundID] OR 8857[CompoundID] OR 3893[CompoundID] OR 9936739[CompoundID] OR 516892[CompoundID] OR 5430[CompoundID] OR 9017[CompoundID] OR 15433[Compound
ID] OR 107720[CompoundID] OR 9552081[CompoundID] OR 164825[CompoundID] OR 10275455[CompoundID] OR 16666[CompoundID] OR 9839306[CompoundID] OR 5282227[CompoundID] OR 23676745[CompoundID] OR 32881[Compo
undID] OR 91581[CompoundID] OR 39800[CompoundID] OR 33344[CompoundID] OR 15962220[CompoundID] OR 33528[CompoundID] OR 5365075[CompoundID] OR 62829[CompoundID] OR 162381[CompoundID] OR 517202[CompoundI
D] OR 6433353[CompoundID] OR 2730[CompoundID] OR 5372405[CompoundID] OR 36081[CompoundID] OR 3120[CompoundID] OR 3017[CompoundID] OR 2969[CompoundID] OR 18827[CompoundID] OR 19518[CompoundID] OR 19658
[CompoundID] OR 38283[CompoundID] OR 2758[CompoundID] OR 10112[CompoundID] OR 10340[CompoundID] OR 712[CompoundID] OR 5794[CompoundID] OR 3347[CompoundID] OR 104150[CompoundID] OR 2912[CompoundID] OR
2450[CompoundID] OR 40326[CompoundID] OR 40585[CompoundID] OR 517055[CompoundID] OR 10913[CompoundID] OR 108242[CompoundID] OR 62097[CompoundID] OR 41679[CompoundID] OR 54680676[CompoundID] OR 62118[C
ompoundID] OR 753[CompoundID] OR 1030[CompoundID] OR 23673837[CompoundID] OR 54678504[CompoundID] OR 11442[CompoundID] OR 11463[CompoundID] OR 22230[CompoundID] OR 440917[CompoundID] OR 6054[CompoundI
D] OR 43234[CompoundID] OR 22629[CompoundID] OR 3039[CompoundID] OR 2735067[CompoundID] OR 6144[CompoundID] OR 702[CompoundID] OR 284[CompoundID] OR 176[CompoundID] OR 91688[CompoundID] OR 22947[Compo
undID] OR 47445[CompoundID] OR 1711973[CompoundID] OR 243[CompoundID] OR 10342051[CompoundID] OR 5281875[CompoundID] OR 3776[CompoundID] OR 6224[CompoundID] OR 104926[CompoundID] OR 8755[CompoundID] O
R 338[CompoundID] OR 123622[CompoundID] OR 23954[CompoundID] OR 6334[CompoundID] OR 2537[CompoundID] OR 24261[CompoundID] OR 23665760[CompoundID] OR 83975[CompoundID] OR 784[CompoundID] OR 24437[Compo
undID] OR 5360315[CompoundID] OR 311[CompoundID] OR 6549[CompoundID] OR 107689[CompoundID] OR 17100[CompoundID] OR 24976875[CompoundID] OR 6654[CompoundID] OR 71245[CompoundID] OR 6442842[CompoundID]
OR 62334[CompoundID] OR 54698175[CompoundID] OR 6328154[CompoundID] OR 24762[CompoundID] OR 440950[CompoundID] OR 7017[CompoundID] OR 5281873[CompoundID] OR 323[CompoundID] OR 5281167[CompoundID] OR 7
175[CompoundID] OR 7292[CompoundID] OR 6335613[CompoundID] OR 7456[CompoundID] OR 7462[CompoundID]

> <resultIndex>
47

> <resultRange>
1-176

> <textQuery>
7628,244,25059,7618,7641,5053,637511,7714,7762,25429,8842,7794,637566,7843,174,7870,86102,7888,7896,1140,8042,8058,8078,8087,8117,8133,115224,8175,8194,445639,4944,8294,93541,8360,8363,656612,125098,3
352,3303913,64805,31200,1712058,31236,31239,31265,31266,31276,6950273,518659,14896,14798,14829,14830,8635,23266,4284,8693,22311,8759,8785,2723810,8857,3893,9936739,516892,5430,9017,15433,107720,955208
1,164825,10275455,16666,9839306,5282227,23676745,32881,91581,39800,33344,15962220,33528,5365075,62829,162381,517202,6433353,2730,5372405,36081,3120,3017,2969,18827,19518,19658,38283,2758,10112,10340,7
12,5794,3347,104150,2912,2450,40326,40585,517055,10913,108242,62097,41679,54680676,62118,753,1030,23673837,54678504,11442,11463,22230,440917,6054,43234,22629,3039,2735067,6144,702,284,176,91688,22947,
47445,1711973,243,10342051,5281875,3776,6224,104926,8755,338,123622,23954,6334,2537,24261,23665760,83975,784,24437,5360315,311,6549,107689,17100,24976875,6654,71245,6442842,62334,54698175,6328154,2476
2,440950,7017,5281873,323,5281167,7175,7292,6335613,7456,7462

$$$$
107,689
  SciTegic10191915303D

 12 11  0  0  1  0            999 V2000
   -0.0410    0.7070    1.7640 O   0  0
    1.8670    0.9610    0.6170 O   0  0
    0.4810   -1.5230   -0.4220 O   0  0
    0.6130    0.5390    0.7620 C   0  0
    0.0390   -0.1840   -0.4280 C   0  0  2  0  0  0
   -1.4880   -0.1840   -0.4280 C   0  0
    2.2930    1.4320    1.3440 H   0  0
    1.4340   -1.5100   -0.6000 H   0  0
    0.4260    0.2970   -1.3260 H   0  0
   -1.8750   -0.6860   -1.3150 H   0  0
   -1.8750   -0.6860    0.4610 H   0  0
   -1.8750    0.8360   -0.4280 H   0  0
  1  4  2  0
  2  4  1  0
  5  3  1  0
  4  5  1  0
  5  6  1  0
  2  7  1  0
  3  8  1  0
  5  9  1  0
  6 10  1  0
  6 11  1  0
  6 12  1  0
M  END
> <Name>
107,689

> <OBJECTID>
9223372243016548363

> <ActiveAidCount>
2

> <AtomChiralCount>
1

> <AtomChiralDefCount>
1

> <AtomChiralUndefCount>
0

> <BondChiralCount>
0

> <BondChiralDefCount>
0

> <BondChiralUndefCount>
0

> <CID>
107689

> <CanonicalSmiles>
CC(C(=O)O)O

> <Complexity>
59.1

> <CovalentUnitCount>
1

> <CreateDate>
2004/09/16 00:00

> <HeavyAtomCount>
6

> <HydrogenBondAcceptorCount>
3

> <HydrogenBondDonorCount>
2

> <IUPACName>
(2S)-2-hydroxypropanoic acid

> <InChI>
InChI=1S/C3H6O3/c1-2(4)3(5)6/h2,4H,1H3,(H,5,6)/t2-/m0/s1

> <InChIKey>
JVTAAEKCZFNVCJ-REOHCLBHSA-N

> <IsomericSmiles>
C[C@@H](C(=O)O)O

> <IsotopeAtomCount>
0

> <MeSHHeading>
Lactic Acid

> <MeSHTerm>
L-Lactic Acid
D Lactic Acid
Propanoic Acid, 2-Hydroxy-, (2S)-
Lactate, Ammonium
Lactic Acid
L Lactic Acid
Propanoic Acid, 2-Hydroxy-, (2R)-
Lactate
2-Hydroxypropionic Acid
D-Lactic Acid
2 Hydroxypropionic Acid
Sarcolactic Acid
2 Hydroxypropanoic Acid
2-Hydroxypropanoic Acid
Ammonium Lactate

> <MolecularFormula>
C3H6O3

> <MolecularWeight>
90.08

> <RotatableBondCount>
1

> <Smiles>
O=C([C@H](C)O)O

> <SourceCategory>
Chemical Vendors
Legacy Depositors
Research and Development
Curation Efforts
Governmental Organizations
NIH Initiatives
Subscription Services
Journal Publishers

> <Synonym>
L-Lactic acid
79-33-4
L-(+)-Lactic acid
(S)-2-Hydroxypropanoic acid
(S)-Lactic acid
(S)-2-Hydroxypropionic acid
(2S)-2-hydroxypropanoic acid
Sarcolactic acid
Lactic acid, L-
Espiritin
(+)-Lactic acid
Tisulac
Paralactic acid
PURAC
(S)-(+)-Lactic acid
Paramilchsaeure
L-lactate
Propanoic acid, 2-hydroxy-, (2S)-
Fleischmilchsaeure
(S)-Milchsaeure
(S)-lactate
Acidum sarcolacticum
PLLA
L(+)-LACTIC ACID
PH 90
L-(+)-alpha-Hydroxypropionic acid
UNII-F9S9FFU82N
(S)-2-Hydroxypropionsaeure
PROPANOIC ACID, 2-HYDROXY-, (S)-
EINECS 201-196-2
BRN 1720251
F9S9FFU82N
CHEBI:422
(2S)-2-Hydroxypropanoic acid homopolymer
JVTAAEKCZFNVCJ-REOHCLBHSA-N
Propanoic acid, 2-hydroxy-, (S)-, homopolymer
Poly(lactic acid)
MFCD00064266
S-Lactic acid sodium salt
Atrisorb
Sculptra
l-milchsaure
Ticron
Pleo sanvis
New-Fill
Sarcolacticum acidum
Poly-L-lactic acid
L(+)-Lactic acid, 90% solution in water
L(+)-Lactic acid, 20 wt.% solution in water
L-Lactic acid homopolymer
UNII-W92NDP347A
L( )-2-Hydroxypropionsaeure
L(+)-2-Hydroxypropionsaeure
L-Milchsaeure
L-Iactic acid
Lactic Acid FCC
L(+)-Lacticacid
2OP
(|A)-lactate
DL6049
nchembio867-comp9
L-(+) Lactic Acid
AC1Q5QUL
L-Lactic acid, anhydrous
bmse000208
bmse000818
bmse000979
EC 201-196-2
4-03-00-00633 (Beilstein Handbook Reference)
(S)-2-hydroxy-propionic acid
(S)-2-oC>>u+/-uEa
AC1L32K7
AC1Q29M6
CHEMBL330546
GTPL2932
W92NDP347A
L-(+)-Lactic acid, 80%
L-(+)-Lactic acid, anhydrous
(S)(+)2 hydroxypropionic acid
DTXSID6034689
KS-00000WTK
(s)(+)-2 hydroxypropionic acid
L-Lactic acid solution, 90.0%
L-(+)-Lactic acid, >=98%
2-Hydroxypropanoic acid, (S)- #
HY-Y0479
ZINC4658560
(1/4) inverted exclamation markEeEa
AKOS025146504
L-Lactic acid, crystalline, 98.0%+
MCULE-8864689875
L-(+)-Lactic acid, analytical standard
26811-96-1
AJ-51840
BC207702
LS-87453
SC-18207
CS-0015266
FT-0773848
FT-0774042
L0165
Propanoic acid, 2-hydroxy-, (S)- (9CI)
V3455
L-(+)-Lactic acid solution, ~40% in H2O
C00186
L-0990
L-1000
L-(+)-Lactic acid solution, in H2O, >=85%
L-(+)-Lactic acid, BioXtra, >=98% (titration)
L-(+)-Lactic acid, Vetec(TM) reagent grade, 86%
5E39D33D-2F71-4C24-BC7A-5E6F27E4CF83
L-(+)-Lactic acid solution, 30% in H2O (by weight)
UNII-3B8D35Y7S4 component JVTAAEKCZFNVCJ-REOHCLBHSA-N
UNII-3B8D35Y7S4 component JVTAAEKCZFNVCJ-UWTATZPHSA-N
L-(+)-Lactic acid solution, ~50% (L-lactic acid in water)
L-(+)-Lactic acid solution, purum, ~20% (L-lactic acid in water)
L-(+)-Lactic acid solution, ACS reagent, 85-90% (L-lactic acid in water)
L-(+)-Lactic acid solution, purum p.a., 79-81% (L-lactic acid in water, T)
L-(+)-Lactic acid solution, meets analytical specification of Ph.??Eur., BP, 88-92% total acid basis

> <TPSA>
57.5

> <TotalAidCount>
4

> <TotalFormalCharge>
0

> <XLogP>
-0.7

> <database>
PubChem Compound

> <matchingCount>
176

> <primaryID>
107689

> <queryTranslation>
7628[CompoundID] OR 244[CompoundID] OR 25059[CompoundID] OR 7618[CompoundID] OR 7641[CompoundID] OR 5053[CompoundID] OR 637511[CompoundID] OR 7714[CompoundID] OR 7762[CompoundID] OR 25429[CompoundID]
OR 8842[CompoundID] OR 7794[CompoundID] OR 637566[CompoundID] OR 7843[CompoundID] OR 174[CompoundID] OR 7870[CompoundID] OR 86102[CompoundID] OR 7888[CompoundID] OR 7896[CompoundID] OR 1140[CompoundID
] OR 8042[CompoundID] OR 8058[CompoundID] OR 8078[CompoundID] OR 8087[CompoundID] OR 8117[CompoundID] OR 8133[CompoundID] OR 115224[CompoundID] OR 8175[CompoundID] OR 8194[CompoundID] OR 445639[Compou
ndID] OR 4944[CompoundID] OR 8294[CompoundID] OR 93541[CompoundID] OR 8360[CompoundID] OR 8363[CompoundID] OR 656612[CompoundID] OR 125098[CompoundID] OR 3352[CompoundID] OR 3303913[CompoundID] OR 648
05[CompoundID] OR 31200[CompoundID] OR 1712058[CompoundID] OR 31236[CompoundID] OR 31239[CompoundID] OR 31265[CompoundID] OR 31266[CompoundID] OR 31276[CompoundID] OR 6950273[CompoundID] OR 518659[Com
poundID] OR 14896[CompoundID] OR 14798[CompoundID] OR 14829[CompoundID] OR 14830[CompoundID] OR 8635[CompoundID] OR 23266[CompoundID] OR 4284[CompoundID] OR 8693[CompoundID] OR 22311[CompoundID] OR 87
59[CompoundID] OR 8785[CompoundID] OR 2723810[CompoundID] OR 8857[CompoundID] OR 3893[CompoundID] OR 9936739[CompoundID] OR 516892[CompoundID] OR 5430[CompoundID] OR 9017[CompoundID] OR 15433[Compound
ID] OR 107720[CompoundID] OR 9552081[CompoundID] OR 164825[CompoundID] OR 10275455[CompoundID] OR 16666[CompoundID] OR 9839306[CompoundID] OR 5282227[CompoundID] OR 23676745[CompoundID] OR 32881[Compo
undID] OR 91581[CompoundID] OR 39800[CompoundID] OR 33344[CompoundID] OR 15962220[CompoundID] OR 33528[CompoundID] OR 5365075[CompoundID] OR 62829[CompoundID] OR 162381[CompoundID] OR 517202[CompoundI
D] OR 6433353[CompoundID] OR 2730[CompoundID] OR 5372405[CompoundID] OR 36081[CompoundID] OR 3120[CompoundID] OR 3017[CompoundID] OR 2969[CompoundID] OR 18827[CompoundID] OR 19518[CompoundID] OR 19658
[CompoundID] OR 38283[CompoundID] OR 2758[CompoundID] OR 10112[CompoundID] OR 10340[CompoundID] OR 712[CompoundID] OR 5794[CompoundID] OR 3347[CompoundID] OR 104150[CompoundID] OR 2912[CompoundID] OR
2450[CompoundID] OR 40326[CompoundID] OR 40585[CompoundID] OR 517055[CompoundID] OR 10913[CompoundID] OR 108242[CompoundID] OR 62097[CompoundID] OR 41679[CompoundID] OR 54680676[CompoundID] OR 62118[C
ompoundID] OR 753[CompoundID] OR 1030[CompoundID] OR 23673837[CompoundID] OR 54678504[CompoundID] OR 11442[CompoundID] OR 11463[CompoundID] OR 22230[CompoundID] OR 440917[CompoundID] OR 6054[CompoundI
D] OR 43234[CompoundID] OR 22629[CompoundID] OR 3039[CompoundID] OR 2735067[CompoundID] OR 6144[CompoundID] OR 702[CompoundID] OR 284[CompoundID] OR 176[CompoundID] OR 91688[CompoundID] OR 22947[Compo
undID] OR 47445[CompoundID] OR 1711973[CompoundID] OR 243[CompoundID] OR 10342051[CompoundID] OR 5281875[CompoundID] OR 3776[CompoundID] OR 6224[CompoundID] OR 104926[CompoundID] OR 8755[CompoundID] O
R 338[CompoundID] OR 123622[CompoundID] OR 23954[CompoundID] OR 6334[CompoundID] OR 2537[CompoundID] OR 24261[CompoundID] OR 23665760[CompoundID] OR 83975[CompoundID] OR 784[CompoundID] OR 24437[Compo
undID] OR 5360315[CompoundID] OR 311[CompoundID] OR 6549[CompoundID] OR 107689[CompoundID] OR 17100[CompoundID] OR 24976875[CompoundID] OR 6654[CompoundID] OR 71245[CompoundID] OR 6442842[CompoundID]
OR 62334[CompoundID] OR 54698175[CompoundID] OR 6328154[CompoundID] OR 24762[CompoundID] OR 440950[CompoundID] OR 7017[CompoundID] OR 5281873[CompoundID] OR 323[CompoundID] OR 5281167[CompoundID] OR 7
175[CompoundID] OR 7292[CompoundID] OR 6335613[CompoundID] OR 7456[CompoundID] OR 7462[CompoundID]

> <resultIndex>
48

> <resultRange>
1-176

> <textQuery>
7628,244,25059,7618,7641,5053,637511,7714,7762,25429,8842,7794,637566,7843,174,7870,86102,7888,7896,1140,8042,8058,8078,8087,8117,8133,115224,8175,8194,445639,4944,8294,93541,8360,8363,656612,125098,3
352,3303913,64805,31200,1712058,31236,31239,31265,31266,31276,6950273,518659,14896,14798,14829,14830,8635,23266,4284,8693,22311,8759,8785,2723810,8857,3893,9936739,516892,5430,9017,15433,107720,955208
1,164825,10275455,16666,9839306,5282227,23676745,32881,91581,39800,33344,15962220,33528,5365075,62829,162381,517202,6433353,2730,5372405,36081,3120,3017,2969,18827,19518,19658,38283,2758,10112,10340,7
12,5794,3347,104150,2912,2450,40326,40585,517055,10913,108242,62097,41679,54680676,62118,753,1030,23673837,54678504,11442,11463,22230,440917,6054,43234,22629,3039,2735067,6144,702,284,176,91688,22947,
47445,1711973,243,10342051,5281875,3776,6224,104926,8755,338,123622,23954,6334,2537,24261,23665760,83975,784,24437,5360315,311,6549,107689,17100,24976875,6654,71245,6442842,62334,54698175,6328154,2476
2,440950,7017,5281873,323,5281167,7175,7292,6335613,7456,7462

$$$$
104,926
  SciTegic10191915303D

 47 49  0  0  1  0            999 V2000
    2.7310    1.5840    3.4650 N   0  0
    2.1020    1.2170    2.5610 C   0  0
    1.3130    0.7540    1.4240 C   0  0  3  0  0  0
    1.9530    1.0450    0.1150 C   0  0
    1.9900    2.3610   -0.3730 C   0  0
    2.5960    2.6350   -1.6110 C   0  0
    3.1640    1.5920   -2.3630 C   0  0
    3.1290    0.2720   -1.8750 C   0  0
    2.5220    0.0020   -0.6360 C   0  0
    3.6620   -0.7110   -2.5760 O   0  0
    3.0450   -1.8750   -2.5760 C   0  0
    1.6390   -1.9320   -2.5760 C   0  0
    0.9810   -3.1720   -2.5760 C   0  0
    1.7270   -4.3630   -2.5760 C   0  0
    3.1310   -4.3130   -2.5760 C   0  0
    3.7890   -3.0700   -2.5760 C   0  0
    3.7370    1.8590   -3.5350 F   0  0
    0.0260    1.3560    1.4670 O   0  0
   -0.7280    0.8690    2.4480 C   0  0
   -0.3890   -0.0350    3.1740 O   0  0
   -2.0800    1.5430    2.6000 C   0  0  3  0  0  0
   -3.3530    0.7190    2.5750 C   0  0  3  0  0  0
   -3.0230    1.6410    1.4120 C   0  0
   -3.8460    2.9160    1.2780 C   0  0
   -2.5980    1.0200    0.0840 C   0  0
   -3.2890   -0.7870    2.3990 C   0  0
   -4.2950   -1.4360    1.7870 C   0  0
   -4.1930   -3.1500    1.5780 Cl  0  0
   -5.6800   -0.5740    1.2110 Cl  0  0
    1.1390   -0.3180    1.5140 H   0  0
    1.5530    3.1680    0.1990 H   0  0
    2.6210    3.6490   -1.9820 H   0  0
    2.4940   -1.0120   -0.2610 H   0  0
    1.0630   -1.0180   -2.5760 H   0  0
   -0.0990   -3.2110   -2.5760 H   0  0
    1.2210   -5.3180   -2.5760 H   0  0
    3.7050   -5.2270   -2.5760 H   0  0
    4.8670   -3.0330   -2.5760 H   0  0
   -2.0780    2.3910    3.2850 H   0  0
   -4.1460    1.0530    3.2440 H   0  0
   -4.7660    2.7500    0.7150 H   0  0
   -3.2770    3.6900    0.7620 H   0  0
   -4.1210    3.3030    2.2580 H   0  0
   -3.4670    0.7890   -0.5310 H   0  0
   -1.9430    1.6970   -0.4650 H   0  0
   -2.0530    0.0920    0.2520 H   0  0
   -2.4750   -1.4100    2.7350 H   0  0
  1  2  3  0
  2  3  1  0
  3  4  1  0
  3 18  1  0
  4  5  2  0
  4  9  1  0
  5  6  1  0
  6  7  2  0
  7  8  1  0
  7 17  1  0
  8  9  2  0
  8 10  1  0
 10 11  1  0
 11 12  2  0
 11 16  1  0
 12 13  1  0
 13 14  2  0
 14 15  1  0
 15 16  2  0
 18 19  1  0
 19 20  2  0
 19 21  1  0
 21 22  1  0
 21 23  1  0
 22 23  1  0
 22 26  1  0
 23 24  1  0
 23 25  1  0
 26 27  2  0
 27 28  1  0
 27 29  1  0
  3 30  1  0
  5 31  1  0
  6 32  1  0
  9 33  1  0
 12 34  1  0
 13 35  1  0
 14 36  1  0
 15 37  1  0
 16 38  1  0
 21 39  1  0
 22 40  1  0
 24 41  1  0
 24 42  1  0
 24 43  1  0
 25 44  1  0
 25 45  1  0
 25 46  1  0
 26 47  1  0
M  END
> <Name>
104,926

> <OBJECTID>
9223372247311515659

> <ActiveAidCount>
19

> <AtomChiralCount>
3

> <AtomChiralDefCount>
0

> <AtomChiralUndefCount>
3

> <BondChiralCount>
0

> <BondChiralDefCount>
0

> <BondChiralUndefCount>
0

> <CID>
104926

> <CanonicalSmiles>
CC1(C(C1C(=O)OC(C#N)C2=CC(=C(C=C2)F)OC3=CC=CC=C3)C=C(Cl)Cl)C

> <Complexity>
679

> <CovalentUnitCount>
1

> <CreateDate>
2005/03/27 00:00

> <HeavyAtomCount>
29

> <HydrogenBondAcceptorCount>
5

> <HydrogenBondDonorCount>
0

> <IUPACName>
[cyano-(4-fluoro-3-phenoxyphenyl)methyl] 3-(2,2-dichloroethenyl)-2,2-dimethylcyclopropane-1-carboxylate

> <InChI>
InChI=1S/C22H18Cl2FNO3/c1-22(2)15(11-19(23)24)20(22)21(27)29-18(12-26)13-8-9-16(25)17(10-13)28-14-6-4-3-5-7-14/h3-11,15,18,20H,1-2H3

> <InChIKey>
QQODLKZGRKWIFG-UHFFFAOYSA-N

> <IsomericSmiles>
CC1(C(C1C(=O)OC(C#N)C2=CC(=C(C=C2)F)OC3=CC=CC=C3)C=C(Cl)Cl)C

> <IsotopeAtomCount>
0

> <MeSHHeading>
cyfluthrin

> <MeSHTerm>
OMS-2012
cyano(4-fluoro-3-phenoxyphenyl)methyl 3-(2,2-dichloroethenyl)-2,2-dimethylcyclopropane carboxylate
beta-cyfluthrin
cyfluthrin
OMS 2012

> <MolecularFormula>
C22H18Cl2FNO3

> <MolecularWeight>
434.3

> <PharmAction>
Insecticides
Chemical Actions and Uses
Agrochemicals
Specialty Uses of Chemicals
Toxic Actions
Pesticides

> <RotatableBondCount>
7

> <Smiles>
N#CC(OC(C1C(C)(C)C1\C=C(\Cl)/Cl)=O)c2cc(Oc3ccccc3)c(F)cc2

> <SourceCategory>
Legacy Depositors
Chemical Vendors
Governmental Organizations
NIH Initiatives
Subscription Services
Research and Development
Curation Efforts
Journal Publishers

> <Synonym>
CYFLUTHRIN
68359-37-5
Baythroid
Cyfoxylate
Responsar
Syfrutrin
Solfac
Baythroid H
Eulan SP
Tempo 2
Cyfluthrine
Bulldock
Cyfluthine
beta-Cyfluthrin
Bay-fcr 1272
Cyfluthrin [BAN]
Caswell No. 266E
Cyano(4-fluoro-3-phenoxyphenyl)methyl 3-(2,2-dichlorovinyl)-2,2-dimethylcyclopropanecarboxylate
Cyfluthrin [BSI:ISO]
BAY-VI 1704
Cyfluthine [ISO-French]
FCR 1272
FCR 4545
BAY FCR 1272
HSDB 6599
EINECS 269-855-7
EPA Pesticide Chemical Code 128831
BRN 2788149
AI3-29604
Cyfluthrin, Mixture of isomers
CHEBI:4034
(R,S)-alpha-Cyano-4-fluoro-3-phenoxybenzyl-(1R,S)-cis,trans-3-(2,2-dichlorovinyl)-2,2-dimethylcyclopropanecarboxylate
Cyclopropanecarboxylic acid, 3-(2,2-dichloroethenyl)-2,2-dimethyl-, cyano(4-fluoro-3-phenoxyphenyl)methyl ester
Cyfluthrin (BAN)
(1RS,3SR)-3-(2,2-dichlorovinyl)-2,2-dimethylcyclopropanecarboxylate
alpha-Cyano-4-fluoro-3-phenoxybenzyl 3-(2,2-dichlorovinyl)-2,2-dimethylcyclopropanecarboxylate
(RS)-alpha-Cyano-4-fluoro-3-phenoxybenzyl (1RS,3RS:1RS,3SR)-3-(2,2-dichlorovinyl)-2,2-dimethylcyclopropanecarboxylate
[cyano-(4-fluoro-3-phenoxyphenyl)methyl] 3-(2,2-dichloroethenyl)-2,2-dimethylcyclopropane-1-carboxylate
3-(2,2-Dichloroethenyl)-2,2-diethylcyclopropanecarboxylic acid cyano(4-fluoro-3-phenoxyphenyl)methyl ester
3-(2,2-Dichloroethenyl)-2,2-dimethylcyclopropanecarboxylic acid, cyano(4-fluoro-3-phenoxyphenyl)methyl ester
Cyano(4-fluoro-3-phenoxyphenyl)methyl 3-(2,2-dichloroethenyl)-2,2-dimethyl-cyclopropanecarboxylate
Cyano(4-fluoro-3-phenoxyphenyl)methyl 3-(2,2-dichloroethenyl)-2,2-dimethylcyclopropanecarboxylate
(RS)-alpha-Cyano-4-fluoro-3-phenoxybenzyl (1RS,3RS; 1RS,3SR)-3-(2,2-dichlorovinyl)-2,2-dimethylcyclopropanecarboxylate
Cyclopropanecarboxylic acid, 2-(2,2-dichlorovinyl)-3,3-dimethyl-, ester with (4-fluoro-3-phenoxyphenyl)hydroxyacetonitrile
C22H18Cl2FNO3
Sofac
CCRIS 9269
Baythroid&reg;
.beta.-Cyfluthrin
Cylence (TN)
Baytroid (Salt/Mix)
AC1L2XQE
AC1Q3FFD
Baythroid 2 (Salt/Mix)
DSSTox_CID_28078
DSSTox_RID_79271
DSSTox_GSID_35957
SCHEMBL26024
CHEMBL2104608
DTXSID5035957
BAY VL 1704
BAY-VL-1704
CTK3E9340
QQODLKZGRKWIFG-UHFFFAOYSA-N
BCP19177
Tox21_300645
MFCD00078636
AKOS015899750
KS-5075
Cyfluthrin 10 microg/mL in Cyclohexane
Cyfluthrin 10 microg/mL in Acetonitrile
Cyfluthrin 100 microg/mL in Cyclohexane
NCGC00254553-01
AK122227
LS-58648
AX8022177
CAS-68359-37-5
TR-022854
519-EP2308857A1
519-EP2308858A1
519-EP2311816A1
526-EP2274983A1
526-EP2275422A1
526-EP2280009A1
526-EP2292608A1
526-EP2298076A1
526-EP2298077A1
526-EP2301353A1
526-EP2305031A1
526-EP2305034A1
526-EP2305035A1
526-EP2308857A1
526-EP2308858A1
526-EP2311816A1
526-EP2314583A1
FT-0641182
C10982
D07761
Baythroid(R), PESTANAL(R), analytical standard
359C375
C-36396
SR-01000883726
beta-Cyfluthrin, PESTANAL(R), analytical standard
SR-01000883726-1
I14-11255
[cyano-(4-fluoro-3-phenoxy-phenyl)methyl] 3-(2,2-dichloroethenyl)-2,2-dimethyl-cyclopropane-1-carboxylate
[cyano-(4-fluoro-3-phenoxy-phenyl)methyl] 3-(2,2-dichlorovinyl)-2,2-dimethyl-cyclopropanecarboxylate
83855-46-3
Cyano(4-fluoro-3-phenoxyphenyl)methyl 3-(2,2-dichlorovinyl)-2,2-dimethylcyclopropanecarboxylate #

> <TPSA>
59.3

> <TotalAidCount>
264

> <TotalFormalCharge>
0

> <XLogP>
6.2

> <database>
PubChem Compound

> <matchingCount>
176

> <primaryID>
104926

> <queryTranslation>
7628[CompoundID] OR 244[CompoundID] OR 25059[CompoundID] OR 7618[CompoundID] OR 7641[CompoundID] OR 5053[CompoundID] OR 637511[CompoundID] OR 7714[CompoundID] OR 7762[CompoundID] OR 25429[CompoundID]
OR 8842[CompoundID] OR 7794[CompoundID] OR 637566[CompoundID] OR 7843[CompoundID] OR 174[CompoundID] OR 7870[CompoundID] OR 86102[CompoundID] OR 7888[CompoundID] OR 7896[CompoundID] OR 1140[CompoundID
] OR 8042[CompoundID] OR 8058[CompoundID] OR 8078[CompoundID] OR 8087[CompoundID] OR 8117[CompoundID] OR 8133[CompoundID] OR 115224[CompoundID] OR 8175[CompoundID] OR 8194[CompoundID] OR 445639[Compou
ndID] OR 4944[CompoundID] OR 8294[CompoundID] OR 93541[CompoundID] OR 8360[CompoundID] OR 8363[CompoundID] OR 656612[CompoundID] OR 125098[CompoundID] OR 3352[CompoundID] OR 3303913[CompoundID] OR 648
05[CompoundID] OR 31200[CompoundID] OR 1712058[CompoundID] OR 31236[CompoundID] OR 31239[CompoundID] OR 31265[CompoundID] OR 31266[CompoundID] OR 31276[CompoundID] OR 6950273[CompoundID] OR 518659[Com
poundID] OR 14896[CompoundID] OR 14798[CompoundID] OR 14829[CompoundID] OR 14830[CompoundID] OR 8635[CompoundID] OR 23266[CompoundID] OR 4284[CompoundID] OR 8693[CompoundID] OR 22311[CompoundID] OR 87
59[CompoundID] OR 8785[CompoundID] OR 2723810[CompoundID] OR 8857[CompoundID] OR 3893[CompoundID] OR 9936739[CompoundID] OR 516892[CompoundID] OR 5430[CompoundID] OR 9017[CompoundID] OR 15433[Compound
ID] OR 107720[CompoundID] OR 9552081[CompoundID] OR 164825[CompoundID] OR 10275455[CompoundID] OR 16666[CompoundID] OR 9839306[CompoundID] OR 5282227[CompoundID] OR 23676745[CompoundID] OR 32881[Compo
undID] OR 91581[CompoundID] OR 39800[CompoundID] OR 33344[CompoundID] OR 15962220[CompoundID] OR 33528[CompoundID] OR 5365075[CompoundID] OR 62829[CompoundID] OR 162381[CompoundID] OR 517202[CompoundI
D] OR 6433353[CompoundID] OR 2730[CompoundID] OR 5372405[CompoundID] OR 36081[CompoundID] OR 3120[CompoundID] OR 3017[CompoundID] OR 2969[CompoundID] OR 18827[CompoundID] OR 19518[CompoundID] OR 19658
[CompoundID] OR 38283[CompoundID] OR 2758[CompoundID] OR 10112[CompoundID] OR 10340[CompoundID] OR 712[CompoundID] OR 5794[CompoundID] OR 3347[CompoundID] OR 104150[CompoundID] OR 2912[CompoundID] OR
2450[CompoundID] OR 40326[CompoundID] OR 40585[CompoundID] OR 517055[CompoundID] OR 10913[CompoundID] OR 108242[CompoundID] OR 62097[CompoundID] OR 41679[CompoundID] OR 54680676[CompoundID] OR 62118[C
ompoundID] OR 753[CompoundID] OR 1030[CompoundID] OR 23673837[CompoundID] OR 54678504[CompoundID] OR 11442[CompoundID] OR 11463[CompoundID] OR 22230[CompoundID] OR 440917[CompoundID] OR 6054[CompoundI
D] OR 43234[CompoundID] OR 22629[CompoundID] OR 3039[CompoundID] OR 2735067[CompoundID] OR 6144[CompoundID] OR 702[CompoundID] OR 284[CompoundID] OR 176[CompoundID] OR 91688[CompoundID] OR 22947[Compo
undID] OR 47445[CompoundID] OR 1711973[CompoundID] OR 243[CompoundID] OR 10342051[CompoundID] OR 5281875[CompoundID] OR 3776[CompoundID] OR 6224[CompoundID] OR 104926[CompoundID] OR 8755[CompoundID] O
R 338[CompoundID] OR 123622[CompoundID] OR 23954[CompoundID] OR 6334[CompoundID] OR 2537[CompoundID] OR 24261[CompoundID] OR 23665760[CompoundID] OR 83975[CompoundID] OR 784[CompoundID] OR 24437[Compo
undID] OR 5360315[CompoundID] OR 311[CompoundID] OR 6549[CompoundID] OR 107689[CompoundID] OR 17100[CompoundID] OR 24976875[CompoundID] OR 6654[CompoundID] OR 71245[CompoundID] OR 6442842[CompoundID]
OR 62334[CompoundID] OR 54698175[CompoundID] OR 6328154[CompoundID] OR 24762[CompoundID] OR 440950[CompoundID] OR 7017[CompoundID] OR 5281873[CompoundID] OR 323[CompoundID] OR 5281167[CompoundID] OR 7
175[CompoundID] OR 7292[CompoundID] OR 6335613[CompoundID] OR 7456[CompoundID] OR 7462[CompoundID]

> <resultIndex>
49

> <resultRange>
1-176

> <textQuery>
7628,244,25059,7618,7641,5053,637511,7714,7762,25429,8842,7794,637566,7843,174,7870,86102,7888,7896,1140,8042,8058,8078,8087,8117,8133,115224,8175,8194,445639,4944,8294,93541,8360,8363,656612,125098,3
352,3303913,64805,31200,1712058,31236,31239,31265,31266,31276,6950273,518659,14896,14798,14829,14830,8635,23266,4284,8693,22311,8759,8785,2723810,8857,3893,9936739,516892,5430,9017,15433,107720,955208
1,164825,10275455,16666,9839306,5282227,23676745,32881,91581,39800,33344,15962220,33528,5365075,62829,162381,517202,6433353,2730,5372405,36081,3120,3017,2969,18827,19518,19658,38283,2758,10112,10340,7
12,5794,3347,104150,2912,2450,40326,40585,517055,10913,108242,62097,41679,54680676,62118,753,1030,23673837,54678504,11442,11463,22230,440917,6054,43234,22629,3039,2735067,6144,702,284,176,91688,22947,
47445,1711973,243,10342051,5281875,3776,6224,104926,8755,338,123622,23954,6334,2537,24261,23665760,83975,784,24437,5360315,311,6549,107689,17100,24976875,6654,71245,6442842,62334,54698175,6328154,2476
2,440950,7017,5281873,323,5281167,7175,7292,6335613,7456,7462

$$$$
104,150
  SciTegic10191915303D

 36 35  0  0  0  0            999 V2000
   -1.3890   -1.4180   -2.5630 O   0  0
   -2.1270   -1.0430   -1.6820 C   0  0
   -3.4400   -1.2500   -1.6780 O   0  0
   -3.8790   -1.9590   -2.8280 C   0  0
   -5.3950   -2.1580   -2.7560 C   0  0
   -1.5920   -0.2950   -0.4880 C   0  0
   -0.1700    0.2170   -0.7110 C   0  0
    0.3300    0.9200    0.4790 N   0  0
    1.2380    0.2150    1.3950 C   0  0
    2.6990    0.4510    1.0080 C   0  0
    3.6800   -0.2360    1.9570 C   0  0
    5.1410    0.0020    1.5700 C   0  0
   -0.0610    2.2090    0.7090 C   0  0
    0.4510    2.9100    1.9390 C   0  0
   -0.8030    2.7700   -0.0640 O   0  0
   -3.3650   -2.9200   -2.8520 H   0  0
   -3.6080   -1.3790   -3.7090 H   0  0
   -5.7740   -2.6990   -3.6210 H   0  0
   -5.9070   -1.1970   -2.7130 H   0  0
   -5.6660   -2.7210   -1.8630 H   0  0
   -2.2030    0.5880   -0.3010 H   0  0
   -1.6410   -0.9280    0.3960 H   0  0
    0.5040   -0.6070   -0.9490 H   0  0
   -0.1310    0.8890   -1.5680 H   0  0
    1.0510    0.5510    2.4140 H   0  0
    1.0040   -0.8500    1.3850 H   0  0
    2.8790    0.1430   -0.0230 H   0  0
    2.9120    1.5180    0.9390 H   0  0
    3.5000    0.0720    2.9860 H   0  0
    3.4670   -1.3030    2.0230 H   0  0
    5.8100   -0.4940    2.2720 H   0  0
    5.3380   -0.3730    0.5640 H   0  0
    5.3730    1.0660    1.5820 H   0  0
    0.1170    2.4530    2.8710 H   0  0
    0.1170    3.9470    1.9390 H   0  0
    1.5410    2.9100    1.9390 H   0  0
  1  2  2  0
  2  3  1  0
  2  6  1  0
  3  4  1  0
  4  5  1  0
  6  7  1  0
  7  8  1  0
  8  9  1  0
  8 13  1  0
  9 10  1  0
 10 11  1  0
 11 12  1  0
 13 14  1  0
 13 15  2  0
  4 16  1  0
  4 17  1  0
  5 18  1  0
  5 19  1  0
  5 20  1  0
  6 21  1  0
  6 22  1  0
  7 23  1  0
  7 24  1  0
  9 25  1  0
  9 26  1  0
 10 27  1  0
 10 28  1  0
 11 29  1  0
 11 30  1  0
 12 31  1  0
 12 32  1  0
 12 33  1  0
 14 34  1  0
 14 35  1  0
 14 36  1  0
M  END
> <Name>
104,150

> <OBJECTID>
9223372251606482955

> <ActiveAidCount>
0

> <AtomChiralCount>
0

> <AtomChiralDefCount>
0

> <AtomChiralUndefCount>
0

> <BondChiralCount>
0

> <BondChiralDefCount>
0

> <BondChiralUndefCount>
0

> <CID>
104150

> <CanonicalSmiles>
CCCCN(CCC(=O)OCC)C(=O)C

> <Complexity>
204

> <CovalentUnitCount>
1

> <CreateDate>
2005/08/08 00:00

> <HeavyAtomCount>
15

> <HydrogenBondAcceptorCount>
3

> <HydrogenBondDonorCount>
0

> <IUPACName>
ethyl 3-[acetyl(butyl)amino]propanoate

> <InChI>
InChI=1S/C11H21NO3/c1-4-6-8-12(10(3)13)9-7-11(14)15-5-2/h4-9H2,1-3H3

> <InChIKey>
VZRKEAFHFMSHCD-UHFFFAOYSA-N

> <IsomericSmiles>
CCCCN(CCC(=O)OCC)C(=O)C

> <IsotopeAtomCount>
0

> <MeSHHeading>
ethyl-3-(N-n-butyl-N-acetyl)aminopropionate
insect repellent M 3535

> <MeSHTerm>
3-(N-n-butyl)-N-acetylaminopropionic acid ethyl ester
IR3535
ethyl-3-(N-n-butyl-N-acetyl)aminopropionate
insect repellent M 3535
Repellent 3535
IR 3535
M-3535
EBAAP
insect repellent Merck 3535

> <MolecularFormula>
C11H21NO3

> <MolecularWeight>
215.29

> <RotatableBondCount>
8

> <Smiles>
O=C(CCN(C(=O)C)CCCC)OCC

> <SourceCategory>
Legacy Depositors
Chemical Vendors
Curation Efforts
Governmental Organizations
Subscription Services
Journal Publishers
Research and Development

> <Synonym>
52304-36-6
ethyl 3-(N-butylacetamido)propanoate
Quwenzhi
Ethyl 3-(N-butylacetamido)propionate
EBAAP
UNII-65GQA237EH
ethyl n-acetyl-n-butyl-|A-alaninate
IR3535
Ethyl N-acetyl-N-butyl-beta-alaninate
N-Acetyl-N-butyl-beta-alanine ethyl ester
65GQA237EH
CHEBI:81991
ethyl 3-[acetyl(butyl)amino]propanoate
Q-201664
Repellent 3535
BAAPE
Merck 3535
EINECS 257-835-0
EUS 26-15
IR 3535
N-Acetyl-N-butyl-beta-alanine, ethyl ester
AI 3-70763
AC1L2W7R
AC1Q5II2
DSSTox_CID_15753
DSSTox_RID_79268
DSSTox_GSID_35753
SCHEMBL16475
Ethyl butylacetylaminopropanoate
CHEMBL2230259
DTXSID9035753
HSDB 8318
KS-00000NFS
ZINC2558693
ethyl N-acetyl-N-butyl-?-alaninate
Tox21_301772
MFCD00214076
AKOS015914988
DS-3340
NCGC00255638-01
AK550852
BC200245
CC-32322
SC-15786
CAS-52304-36-6
Ethyl-3-(N-n-butyl-N-acetyl)aminopropionate
FT-0082780
FT-0630653
beta-alanine, N-acetyl-N-butyl-, ethyl ester
C18830
304N366
C-11518
I14-7129
3-(N,N-Butyl-N-acetyl)aminopropionic acid ethyl ester
3-(N-n-Butyl-N-acetyl)aminopropionic acid ethyl ester
3-[N-n-Butyl-N-acetyl]aminopropionic acid-ethyl ester
Nb[n-N-butyl-N-acetyl]aminopropionic acid ethyl ester
3-[n-N-butyl-N-acetyl]aminopropionic acid ethyl ester, AldrichCPR
Ethyl butylacetylaminopropionate, PESTANAL(R), analytical standard

> <TPSA>
46.6

> <TotalAidCount>
220

> <TotalFormalCharge>
0

> <XLogP>
1.2

> <database>
PubChem Compound

> <matchingCount>
176

> <primaryID>
104150

> <queryTranslation>
7628[CompoundID] OR 244[CompoundID] OR 25059[CompoundID] OR 7618[CompoundID] OR 7641[CompoundID] OR 5053[CompoundID] OR 637511[CompoundID] OR 7714[CompoundID] OR 7762[CompoundID] OR 25429[CompoundID]
OR 8842[CompoundID] OR 7794[CompoundID] OR 637566[CompoundID] OR 7843[CompoundID] OR 174[CompoundID] OR 7870[CompoundID] OR 86102[CompoundID] OR 7888[CompoundID] OR 7896[CompoundID] OR 1140[CompoundID
] OR 8042[CompoundID] OR 8058[CompoundID] OR 8078[CompoundID] OR 8087[CompoundID] OR 8117[CompoundID] OR 8133[CompoundID] OR 115224[CompoundID] OR 8175[CompoundID] OR 8194[CompoundID] OR 445639[Compou
ndID] OR 4944[CompoundID] OR 8294[CompoundID] OR 93541[CompoundID] OR 8360[CompoundID] OR 8363[CompoundID] OR 656612[CompoundID] OR 125098[CompoundID] OR 3352[CompoundID] OR 3303913[CompoundID] OR 648
05[CompoundID] OR 31200[CompoundID] OR 1712058[CompoundID] OR 31236[CompoundID] OR 31239[CompoundID] OR 31265[CompoundID] OR 31266[CompoundID] OR 31276[CompoundID] OR 6950273[CompoundID] OR 518659[Com
poundID] OR 14896[CompoundID] OR 14798[CompoundID] OR 14829[CompoundID] OR 14830[CompoundID] OR 8635[CompoundID] OR 23266[CompoundID] OR 4284[CompoundID] OR 8693[CompoundID] OR 22311[CompoundID] OR 87
59[CompoundID] OR 8785[CompoundID] OR 2723810[CompoundID] OR 8857[CompoundID] OR 3893[CompoundID] OR 9936739[CompoundID] OR 516892[CompoundID] OR 5430[CompoundID] OR 9017[CompoundID] OR 15433[Compound
ID] OR 107720[CompoundID] OR 9552081[CompoundID] OR 164825[CompoundID] OR 10275455[CompoundID] OR 16666[CompoundID] OR 9839306[CompoundID] OR 5282227[CompoundID] OR 23676745[CompoundID] OR 32881[Compo
undID] OR 91581[CompoundID] OR 39800[CompoundID] OR 33344[CompoundID] OR 15962220[CompoundID] OR 33528[CompoundID] OR 5365075[CompoundID] OR 62829[CompoundID] OR 162381[CompoundID] OR 517202[CompoundI
D] OR 6433353[CompoundID] OR 2730[CompoundID] OR 5372405[CompoundID] OR 36081[CompoundID] OR 3120[CompoundID] OR 3017[CompoundID] OR 2969[CompoundID] OR 18827[CompoundID] OR 19518[CompoundID] OR 19658
[CompoundID] OR 38283[CompoundID] OR 2758[CompoundID] OR 10112[CompoundID] OR 10340[CompoundID] OR 712[CompoundID] OR 5794[CompoundID] OR 3347[CompoundID] OR 104150[CompoundID] OR 2912[CompoundID] OR
2450[CompoundID] OR 40326[CompoundID] OR 40585[CompoundID] OR 517055[CompoundID] OR 10913[CompoundID] OR 108242[CompoundID] OR 62097[CompoundID] OR 41679[CompoundID] OR 54680676[CompoundID] OR 62118[C
ompoundID] OR 753[CompoundID] OR 1030[CompoundID] OR 23673837[CompoundID] OR 54678504[CompoundID] OR 11442[CompoundID] OR 11463[CompoundID] OR 22230[CompoundID] OR 440917[CompoundID] OR 6054[CompoundI
D] OR 43234[CompoundID] OR 22629[CompoundID] OR 3039[CompoundID] OR 2735067[CompoundID] OR 6144[CompoundID] OR 702[CompoundID] OR 284[CompoundID] OR 176[CompoundID] OR 91688[CompoundID] OR 22947[Compo
undID] OR 47445[CompoundID] OR 1711973[CompoundID] OR 243[CompoundID] OR 10342051[CompoundID] OR 5281875[CompoundID] OR 3776[CompoundID] OR 6224[CompoundID] OR 104926[CompoundID] OR 8755[CompoundID] O
R 338[CompoundID] OR 123622[CompoundID] OR 23954[CompoundID] OR 6334[CompoundID] OR 2537[CompoundID] OR 24261[CompoundID] OR 23665760[CompoundID] OR 83975[CompoundID] OR 784[CompoundID] OR 24437[Compo
undID] OR 5360315[CompoundID] OR 311[CompoundID] OR 6549[CompoundID] OR 107689[CompoundID] OR 17100[CompoundID] OR 24976875[CompoundID] OR 6654[CompoundID] OR 71245[CompoundID] OR 6442842[CompoundID]
OR 62334[CompoundID] OR 54698175[CompoundID] OR 6328154[CompoundID] OR 24762[CompoundID] OR 440950[CompoundID] OR 7017[CompoundID] OR 5281873[CompoundID] OR 323[CompoundID] OR 5281167[CompoundID] OR 7
175[CompoundID] OR 7292[CompoundID] OR 6335613[CompoundID] OR 7456[CompoundID] OR 7462[CompoundID]

> <resultIndex>
50

> <resultRange>
1-176

> <textQuery>
7628,244,25059,7618,7641,5053,637511,7714,7762,25429,8842,7794,637566,7843,174,7870,86102,7888,7896,1140,8042,8058,8078,8087,8117,8133,115224,8175,8194,445639,4944,8294,93541,8360,8363,656612,125098,3
352,3303913,64805,31200,1712058,31236,31239,31265,31266,31276,6950273,518659,14896,14798,14829,14830,8635,23266,4284,8693,22311,8759,8785,2723810,8857,3893,9936739,516892,5430,9017,15433,107720,955208
1,164825,10275455,16666,9839306,5282227,23676745,32881,91581,39800,33344,15962220,33528,5365075,62829,162381,517202,6433353,2730,5372405,36081,3120,3017,2969,18827,19518,19658,38283,2758,10112,10340,7
12,5794,3347,104150,2912,2450,40326,40585,517055,10913,108242,62097,41679,54680676,62118,753,1030,23673837,54678504,11442,11463,22230,440917,6054,43234,22629,3039,2735067,6144,702,284,176,91688,22947,
47445,1711973,243,10342051,5281875,3776,6224,104926,8755,338,123622,23954,6334,2537,24261,23665760,83975,784,24437,5360315,311,6549,107689,17100,24976875,6654,71245,6442842,62334,54698175,6328154,2476
2,440950,7017,5281873,323,5281167,7175,7292,6335613,7456,7462

$$$$
93,541
  SciTegic10191915303D

 41 42  0  0  1  0            999 V2000
   -3.9530    2.5160    1.2320 Cl  0  0
    0.2340    4.0350    2.5270 F   0  0
    0.5630    5.1330    0.6060 F   0  0
   -1.8090    5.7750    3.1780 F   0  0
    0.9690    8.6760    3.7740 F   0  0
   -1.1250    8.0000    4.1840 F   0  0
   -0.5880    8.8180    2.1700 F   0  0
   -1.0900   -5.3500   -1.9570 F   0  0
    3.6080   -4.7580   -2.5080 F   0  0
   -1.4340    4.1000    0.9770 O   0  0
    0.1930    6.7790    2.7950 O   0  0
    1.6740   -2.7340   -2.7420 O   0  0
    0.6720   -0.9360   -1.5470 O   0  0
   -0.7380   -1.3030    0.1480 N   0  0
    0.2620   -3.0740   -1.0450 N   0  0
   -0.3590    4.8150    1.5680 C   0  0
   -1.2830    2.8030    0.7830 C   0  0
   -0.8920    6.0960    2.2090 C   0  0  3  0  0  0
   -2.3830    1.9220    0.8690 C   0  0
   -0.9160    0.0390    0.3570 C   0  0
   -0.0080    2.2930    0.4860 C   0  0
    1.2520   -4.9960   -2.2250 C   0  0
   -2.1970    0.5430    0.6540 C   0  0
   -0.1410    8.0760    3.2330 C   0  0
    0.1800    0.9180    0.2730 C   0  0
    1.0880   -3.5220   -2.0350 C   0  0
    0.1290   -5.8460   -2.1740 C   0  0
    2.5310   -5.5410   -2.4570 C   0  0
    0.0920   -1.7320   -0.8480 C   0  0
    0.2850   -7.2310   -2.3520 C   0  0
    2.6820   -6.9280   -2.6370 C   0  0
    1.5610   -7.7720   -2.5840 C   0  0
   -1.2170   -1.9630    0.7270 H   0  0
   -0.2230   -3.7270   -0.4610 H   0  0
   -1.3530    6.7580    1.4770 H   0  0
    0.8380    2.9630    0.4220 H   0  0
   -3.0430   -0.1290    0.7210 H   0  0
    1.1700    0.5510    0.0470 H   0  0
   -0.5740   -7.8850   -2.3110 H   0  0
    3.6620   -7.3480   -2.8160 H   0  0
    1.6800   -8.8360   -2.7210 H   0  0
  1 19  1  0
  2 16  1  0
  3 16  1  0
  4 18  1  0
  5 24  1  0
  6 24  1  0
  7 24  1  0
  8 27  1  0
  9 28  1  0
 10 16  1  0
 10 17  1  0
 11 18  1  0
 11 24  1  0
 12 26  2  0
 13 29  2  0
 14 20  1  0
 14 29  1  0
 15 26  1  0
 15 29  1  0
 16 18  1  0
 17 19  2  0
 17 21  1  0
 19 23  1  0
 20 23  2  0
 20 25  1  0
 21 25  2  0
 22 26  1  0
 22 27  2  0
 22 28  1  0
 27 30  1  0
 28 31  2  0
 30 32  2  0
 31 32  1  0
 14 33  1  0
 15 34  1  0
 18 35  1  0
 21 36  1  0
 23 37  1  0
 25 38  1  0
 30 39  1  0
 31 40  1  0
 32 41  1  0
M  END
> <Name>
93,541

> <OBJECTID>
9223372255901450251

> <ActiveAidCount>
6

> <AtomChiralCount>
1

> <AtomChiralDefCount>
0

> <AtomChiralUndefCount>
1

> <BondChiralCount>
0

> <BondChiralDefCount>
0

> <BondChiralUndefCount>
0

> <CID>
93541

> <CanonicalSmiles>
C1=CC(=C(C(=C1)F)C(=O)NC(=O)NC2=CC(=C(C=C2)OC(C(OC(F)(F)F)F)(F)F)Cl)F

> <Complexity>
661

> <CovalentUnitCount>
1

> <CreateDate>
2005/08/08 00:00

> <HeavyAtomCount>
32

> <HydrogenBondAcceptorCount>
12

> <HydrogenBondDonorCount>
2

> <IUPACName>
N-[[3-chloro-4-[1,1,2-trifluoro-2-(trifluoromethoxy)ethoxy]phenyl]carbamoyl]-2,6-difluorobenzamide

> <InChI>
InChI=1S/C17H9ClF8N2O4/c18-8-6-7(4-5-11(8)31-16(22,23)14(21)32-17(24,25)26)27-15(30)28-13(29)12-9(19)2-1-3-10(12)20/h1-6,14H,(H2,27,28,29,30)

> <InChIKey>
NJPPVKZQTLUDBO-UHFFFAOYSA-N

> <IsomericSmiles>
C1=CC(=C(C(=C1)F)C(=O)NC(=O)NC2=CC(=C(C=C2)OC(C(OC(F)(F)F)F)(F)F)Cl)F

> <IsotopeAtomCount>
0

> <MeSHHeading>
novaluron

> <MeSHTerm>
1-(3-chloro-4-(1,1,2-trifluoro-2-trifluoromethoxyethoxy)phenyl)-3-(2,6-difluorobenzoyl)urea
novaluron
Rimon EC-10

> <MolecularFormula>
C17H9ClF8N2O4

> <MolecularWeight>
492.7

> <PharmAction>
Insecticides
Chemical Actions and Uses
Specialty Uses of Chemicals
Pesticides
Toxic Actions
Agrochemicals

> <RotatableBondCount>
6

> <Smiles>
Clc1cc(ccc1OC(C(OC(F)(F)F)F)(F)F)NC(NC(c2c(cccc2F)F)=O)=O

> <SourceCategory>
Chemical Vendors
Legacy Depositors
Research and Development
Curation Efforts
Governmental Organizations
NIH Initiatives
Subscription Services
Journal Publishers

> <Synonym>
Novaluron
116714-46-6
Rimon
Novaluron [ISO]
HSDB 7004
CHEBI:39385
NJPPVKZQTLUDBO-UHFFFAOYSA-N
Benzamide, N-3-chloro-4-(1,1,2-trifluoro)-2-(trifluoromethoxy)ethoxyphenyl-amino-carbonyl-2,6-difluoro-
1-[3-Chloro-4-(1,1,2-trifluoro-2-trifluoromethoxyethoxy)phenyl]-3-(2,6-difluorobenzoyl)urea
Benzamide, N-[[[3-chloro-4-[1,1,2-trifluoro-2-(trifluoromethoxy)ethoxy]phenyl]amino]carbonyl]-2,6-difluoro-
N-({3-chloro-4-[1,1,2-trifluoro-2-(trifluoromethoxy)ethoxy]phenyl}carbamoyl)-2,6-difluorobenzamide
N-[[3-chloro-4-[1,1,2-trifluoro-2-(trifluoromethoxy)ethoxy]phenyl]carbamoyl]-2,6-difluorobenzamide
Benzamide, N-(((3-chloro-4-(1,1,2-trifluoro-2-(trifluoromethoxy)ethoxy)phenyl)amino)carbonyl)-2,6-difluoro-
N-[({3-chloro-4-[1,1,2-trifluoro-2-(trifluoromethoxy)ethoxy]phenyl}amino)carbonyl]-2,6-difluorobenzamide
C17H9ClF8N2O4
Pedestal
AC1L3QEQ
DSSTox_CID_14773
DSSTox_RID_79201
DSSTox_GSID_34773
SCHEMBL26984
CHEMBL1869031
DTXSID5034773
Tox21_300959
MFCD04112632
AKOS005063565
CS-3305
NCGC00163902-01
NCGC00163902-02
NCGC00163902-03
NCGC00163902-04
NCGC00254861-01
AN-33158
AS-15773
CC-33085
HY-17519
Q727
AB0017769
LS-182196
CAS-116714-46-6
FT-0631085
Novaluron, PESTANAL(R), analytical standard
C18875
714N466
C-22890
I14-1346
N-(3-chloro-4-(1,1,2-trifluoro-2-(trifluoromethoxy)ethoxy)phenylcarbamoyl)-2,6-difluorobenzamide
N-[[3-chloro-4-[1,1,2-trifluoro-2-(trifluoromethoxy)ethoxy]phenyl]carbamoyl]-2,6-difluoro-benzamide
Pesticide3_Novaluron_C17H9ClF8N2O4_N-({3-Chloro-4-[1,1,2-trifluoro-2-(trifluoromethoxy)ethoxy]phenyl}carbamoyl)-2,6-difluorobenzamide

> <TPSA>
76.7

> <TotalAidCount>
249

> <TotalFormalCharge>
0

> <XLogP>
5.8

> <database>
PubChem Compound

> <matchingCount>
176

> <primaryID>
93541

> <queryTranslation>
7628[CompoundID] OR 244[CompoundID] OR 25059[CompoundID] OR 7618[CompoundID] OR 7641[CompoundID] OR 5053[CompoundID] OR 637511[CompoundID] OR 7714[CompoundID] OR 7762[CompoundID] OR 25429[CompoundID]
OR 8842[CompoundID] OR 7794[CompoundID] OR 637566[CompoundID] OR 7843[CompoundID] OR 174[CompoundID] OR 7870[CompoundID] OR 86102[CompoundID] OR 7888[CompoundID] OR 7896[CompoundID] OR 1140[CompoundID
] OR 8042[CompoundID] OR 8058[CompoundID] OR 8078[CompoundID] OR 8087[CompoundID] OR 8117[CompoundID] OR 8133[CompoundID] OR 115224[CompoundID] OR 8175[CompoundID] OR 8194[CompoundID] OR 445639[Compou
ndID] OR 4944[CompoundID] OR 8294[CompoundID] OR 93541[CompoundID] OR 8360[CompoundID] OR 8363[CompoundID] OR 656612[CompoundID] OR 125098[CompoundID] OR 3352[CompoundID] OR 3303913[CompoundID] OR 648
05[CompoundID] OR 31200[CompoundID] OR 1712058[CompoundID] OR 31236[CompoundID] OR 31239[CompoundID] OR 31265[CompoundID] OR 31266[CompoundID] OR 31276[CompoundID] OR 6950273[CompoundID] OR 518659[Com
poundID] OR 14896[CompoundID] OR 14798[CompoundID] OR 14829[CompoundID] OR 14830[CompoundID] OR 8635[CompoundID] OR 23266[CompoundID] OR 4284[CompoundID] OR 8693[CompoundID] OR 22311[CompoundID] OR 87
59[CompoundID] OR 8785[CompoundID] OR 2723810[CompoundID] OR 8857[CompoundID] OR 3893[CompoundID] OR 9936739[CompoundID] OR 516892[CompoundID] OR 5430[CompoundID] OR 9017[CompoundID] OR 15433[Compound
ID] OR 107720[CompoundID] OR 9552081[CompoundID] OR 164825[CompoundID] OR 10275455[CompoundID] OR 16666[CompoundID] OR 9839306[CompoundID] OR 5282227[CompoundID] OR 23676745[CompoundID] OR 32881[Compo
undID] OR 91581[CompoundID] OR 39800[CompoundID] OR 33344[CompoundID] OR 15962220[CompoundID] OR 33528[CompoundID] OR 5365075[CompoundID] OR 62829[CompoundID] OR 162381[CompoundID] OR 517202[CompoundI
D] OR 6433353[CompoundID] OR 2730[CompoundID] OR 5372405[CompoundID] OR 36081[CompoundID] OR 3120[CompoundID] OR 3017[CompoundID] OR 2969[CompoundID] OR 18827[CompoundID] OR 19518[CompoundID] OR 19658
[CompoundID] OR 38283[CompoundID] OR 2758[CompoundID] OR 10112[CompoundID] OR 10340[CompoundID] OR 712[CompoundID] OR 5794[CompoundID] OR 3347[CompoundID] OR 104150[CompoundID] OR 2912[CompoundID] OR
2450[CompoundID] OR 40326[CompoundID] OR 40585[CompoundID] OR 517055[CompoundID] OR 10913[CompoundID] OR 108242[CompoundID] OR 62097[CompoundID] OR 41679[CompoundID] OR 54680676[CompoundID] OR 62118[C
ompoundID] OR 753[CompoundID] OR 1030[CompoundID] OR 23673837[CompoundID] OR 54678504[CompoundID] OR 11442[CompoundID] OR 11463[CompoundID] OR 22230[CompoundID] OR 440917[CompoundID] OR 6054[CompoundI
D] OR 43234[CompoundID] OR 22629[CompoundID] OR 3039[CompoundID] OR 2735067[CompoundID] OR 6144[CompoundID] OR 702[CompoundID] OR 284[CompoundID] OR 176[CompoundID] OR 91688[CompoundID] OR 22947[Compo
undID] OR 47445[CompoundID] OR 1711973[CompoundID] OR 243[CompoundID] OR 10342051[CompoundID] OR 5281875[CompoundID] OR 3776[CompoundID] OR 6224[CompoundID] OR 104926[CompoundID] OR 8755[CompoundID] O
R 338[CompoundID] OR 123622[CompoundID] OR 23954[CompoundID] OR 6334[CompoundID] OR 2537[CompoundID] OR 24261[CompoundID] OR 23665760[CompoundID] OR 83975[CompoundID] OR 784[CompoundID] OR 24437[Compo
undID] OR 5360315[CompoundID] OR 311[CompoundID] OR 6549[CompoundID] OR 107689[CompoundID] OR 17100[CompoundID] OR 24976875[CompoundID] OR 6654[CompoundID] OR 71245[CompoundID] OR 6442842[CompoundID]
OR 62334[CompoundID] OR 54698175[CompoundID] OR 6328154[CompoundID] OR 24762[CompoundID] OR 440950[CompoundID] OR 7017[CompoundID] OR 5281873[CompoundID] OR 323[CompoundID] OR 5281167[CompoundID] OR 7
175[CompoundID] OR 7292[CompoundID] OR 6335613[CompoundID] OR 7456[CompoundID] OR 7462[CompoundID]

> <resultIndex>
51

> <resultRange>
1-176

> <textQuery>
7628,244,25059,7618,7641,5053,637511,7714,7762,25429,8842,7794,637566,7843,174,7870,86102,7888,7896,1140,8042,8058,8078,8087,8117,8133,115224,8175,8194,445639,4944,8294,93541,8360,8363,656612,125098,3
352,3303913,64805,31200,1712058,31236,31239,31265,31266,31276,6950273,518659,14896,14798,14829,14830,8635,23266,4284,8693,22311,8759,8785,2723810,8857,3893,9936739,516892,5430,9017,15433,107720,955208
1,164825,10275455,16666,9839306,5282227,23676745,32881,91581,39800,33344,15962220,33528,5365075,62829,162381,517202,6433353,2730,5372405,36081,3120,3017,2969,18827,19518,19658,38283,2758,10112,10340,7
12,5794,3347,104150,2912,2450,40326,40585,517055,10913,108242,62097,41679,54680676,62118,753,1030,23673837,54678504,11442,11463,22230,440917,6054,43234,22629,3039,2735067,6144,702,284,176,91688,22947,
47445,1711973,243,10342051,5281875,3776,6224,104926,8755,338,123622,23954,6334,2537,24261,23665760,83975,784,24437,5360315,311,6549,107689,17100,24976875,6654,71245,6442842,62334,54698175,6328154,2476
2,440950,7017,5281873,323,5281167,7175,7292,6335613,7456,7462

$$$$
91,688
  SciTegic10191915303D

 33 33  0  0  0  0            999 V2000
    4.1640   -4.4100    0.0680 C   0  0
    3.8630   -2.9120    0.0720 C   0  0
    2.3650   -2.6090    0.0390 C   0  0
    2.0660   -1.1090    0.0430 C   0  0
    0.5680   -0.8070    0.0080 C   0  0
    0.2690    0.6930    0.0120 C   0  0
   -1.2290    0.9960   -0.0210 C   0  0
   -1.5290    2.4940   -0.0180 C   0  0
   -2.9610    2.7730   -0.0510 N   0  0
   -4.1210    1.5470   -0.0880 S   0  0
   -5.3850    2.6720   -0.1110 C   0  0
   -7.0330    2.1350   -0.1560 Cl  0  0
   -4.9900    3.9610   -0.0920 C   0  0
   -6.0310    5.3500   -0.1070 Cl  0  0
   -3.5270    4.0550   -0.0550 C   0  0
   -2.8770    5.0740   -0.0310 O   0  0
    5.2380   -4.5900    0.0840 H   0  0
    3.7090   -4.8970    0.9320 H   0  0
    3.7600   -4.8810   -0.8280 H   0  0
    4.3770   -2.4140   -0.7500 H   0  0
    4.3360   -2.4280    0.9280 H   0  0
    1.8530   -3.1060    0.8610 H   0  0
    1.8950   -3.0940   -0.8160 H   0  0
    2.5780   -0.6110   -0.7810 H   0  0
    2.5390   -0.6250    0.8960 H   0  0
    0.0570   -1.3050    0.8320 H   0  0
    0.0960   -1.2910   -0.8460 H   0  0
    0.7810    1.1890   -0.8110 H   0  0
    0.7400    1.1780    0.8670 H   0  0
   -1.7420    0.4980    0.8030 H   0  0
   -1.7010    0.5120   -0.8770 H   0  0
   -1.0430    2.9860   -0.8610 H   0  0
   -1.0840    2.9750    0.8550 H   0  0
  1  2  1  0
  2  3  1  0
  3  4  1  0
  4  5  1  0
  5  6  1  0
  6  7  1  0
  7  8  1  0
  8  9  1  0
  9 10  1  0
  9 15  1  0
 10 11  1  0
 11 12  1  0
 11 13  2  0
 13 14  1  0
 13 15  1  0
 15 16  2  0
  1 17  1  0
  1 18  1  0
  1 19  1  0
  2 20  1  0
  2 21  1  0
  3 22  1  0
  3 23  1  0
  4 24  1  0
  4 25  1  0
  5 26  1  0
  5 27  1  0
  6 28  1  0
  6 29  1  0
  7 30  1  0
  7 31  1  0
  8 32  1  0
  8 33  1  0
M  END
> <Name>
91,688

> <OBJECTID>
9223372260196417547

> <ActiveAidCount>
73

> <AtomChiralCount>
0

> <AtomChiralDefCount>
0

> <AtomChiralUndefCount>
0

> <BondChiralCount>
0

> <BondChiralDefCount>
0

> <BondChiralUndefCount>
0

> <CID>
91688

> <CanonicalSmiles>
CCCCCCCCN1C(=O)C(=C(S1)Cl)Cl

> <Complexity>
281

> <CovalentUnitCount>
1

> <CreateDate>
2005/08/08 00:00

> <HeavyAtomCount>
16

> <HydrogenBondAcceptorCount>
2

> <HydrogenBondDonorCount>
0

> <IUPACName>
4,5-dichloro-2-octyl-1,2-thiazol-3-one

> <InChI>
InChI=1S/C11H17Cl2NOS/c1-2-3-4-5-6-7-8-14-11(15)9(12)10(13)16-14/h2-8H2,1H3

> <InChIKey>
PORQOHRXAJJKGK-UHFFFAOYSA-N

> <IsomericSmiles>
CCCCCCCCN1C(=O)C(=C(S1)Cl)Cl

> <IsotopeAtomCount>
0

> <MeSHHeading>
Kathon 930

> <MeSHTerm>
4,5-dichloro-2-(n-octyl)-3(2H)-isothiazolone
Sea-Nine 211
4,5-dichloro-2-n-octyl-4-isothiazolin-3-one
Kathon 930
Sea Nine 211

> <MolecularFormula>
C11H17Cl2NOS

> <MolecularWeight>
282.2

> <RotatableBondCount>
7

> <Smiles>
CCCCCCCCN1C(=O)C(Cl)=C(Cl)S1

> <SourceCategory>
Chemical Vendors
Research and Development
Curation Efforts
Legacy Depositors
Governmental Organizations
Subscription Services
Journal Publishers

> <Synonym>
64359-81-5
4,5-Dichloro-2-octylisothiazol-3(2H)-one
Kathon 930
dcoit
4,5-Dichloro-2-octyl-isothiazolone
4,5-Dichloro-2-n-octyl-4-isothiazolin-3-one
4,5-Dichloro-2-octyl-3(2H)-isothiazolone
4,5-Dichloro-2-n-octyl-3(2H)-isothiazolone
3(2H)-Isothiazolone, 4,5-dichloro-2-octyl-
Caswell No. 314B
4,5-dichloro-2-n-octyl-3-isothiazolone
Anti-Foulant C-9211M
C11H17Cl2NOS
UNII-HCY9Q844W2
4,5-Dichloro-2-octyl-2H-isothiazol-3-one
EINECS 264-843-8
EPA Pesticide Chemical Code 128101
HCY9Q844W2
CHEBI:83518
PORQOHRXAJJKGK-UHFFFAOYSA-N
AK-35973
Dichloro-2-n-octyl-3(2H)-isothiazolone
4,5-Dichloro-N-octyl-3(2H)-isothiazolone
W-111238
Sea-Nine 211
Duracide L
Kathon 287T
ACMC-20a8aq
AC1L3MLA
Sea Nine - 211
dichlorooctylisothiazolinone
AC1Q3H9Z
DSSTox_CID_12315
DSSTox_RID_78912
DSSTox_GSID_32315
SCHEMBL204793
SCHEMBL726153
CHEMBL110764
DTXSID5032315
CTK8B8968
KS-00000GEP
4,5-Dichloro-2-octylisothiazolone
Tox21_302409
ANW-61680
KM0850
MFCD04034673
ZINC43352139
AKOS015900625
AC-4553
CS-W022048
GS-3110
4,5-Dichloro-2-octyl-isothiazol-3-one
NCGC00255367-01
AN-11898
BC200569
CC-17279
K033
LS-86323
4,5-dichloro-2-octyl-1,2-thiazol-3-one
AX8013411
CAS-64359-81-5
TX-016882
D4157
ST24042586
4,5-dichloro-2-octyl-1,2-thiazol-3(2H)-one
4,5-dichloro-2-octyl-isothiazolone, AldrichCPR
359D815
C-27543
I14-0498
4,5-Dichloro-2-n-octyl-3(2H)-isothiazolone (DCOIT)
4,5-dichloro-2-octyl-2,3-dihydro-1,2-thiazol-3-one

> <TPSA>
45.6

> <TotalAidCount>
216

> <TotalFormalCharge>
0

> <XLogP>
5.1

> <database>
PubChem Compound

> <matchingCount>
176

> <primaryID>
91688

> <queryTranslation>
7628[CompoundID] OR 244[CompoundID] OR 25059[CompoundID] OR 7618[CompoundID] OR 7641[CompoundID] OR 5053[CompoundID] OR 637511[CompoundID] OR 7714[CompoundID] OR 7762[CompoundID] OR 25429[CompoundID]
OR 8842[CompoundID] OR 7794[CompoundID] OR 637566[CompoundID] OR 7843[CompoundID] OR 174[CompoundID] OR 7870[CompoundID] OR 86102[CompoundID] OR 7888[CompoundID] OR 7896[CompoundID] OR 1140[CompoundID
] OR 8042[CompoundID] OR 8058[CompoundID] OR 8078[CompoundID] OR 8087[CompoundID] OR 8117[CompoundID] OR 8133[CompoundID] OR 115224[CompoundID] OR 8175[CompoundID] OR 8194[CompoundID] OR 445639[Compou
ndID] OR 4944[CompoundID] OR 8294[CompoundID] OR 93541[CompoundID] OR 8360[CompoundID] OR 8363[CompoundID] OR 656612[CompoundID] OR 125098[CompoundID] OR 3352[CompoundID] OR 3303913[CompoundID] OR 648
05[CompoundID] OR 31200[CompoundID] OR 1712058[CompoundID] OR 31236[CompoundID] OR 31239[CompoundID] OR 31265[CompoundID] OR 31266[CompoundID] OR 31276[CompoundID] OR 6950273[CompoundID] OR 518659[Com
poundID] OR 14896[CompoundID] OR 14798[CompoundID] OR 14829[CompoundID] OR 14830[CompoundID] OR 8635[CompoundID] OR 23266[CompoundID] OR 4284[CompoundID] OR 8693[CompoundID] OR 22311[CompoundID] OR 87
59[CompoundID] OR 8785[CompoundID] OR 2723810[CompoundID] OR 8857[CompoundID] OR 3893[CompoundID] OR 9936739[CompoundID] OR 516892[CompoundID] OR 5430[CompoundID] OR 9017[CompoundID] OR 15433[Compound
ID] OR 107720[CompoundID] OR 9552081[CompoundID] OR 164825[CompoundID] OR 10275455[CompoundID] OR 16666[CompoundID] OR 9839306[CompoundID] OR 5282227[CompoundID] OR 23676745[CompoundID] OR 32881[Compo
undID] OR 91581[CompoundID] OR 39800[CompoundID] OR 33344[CompoundID] OR 15962220[CompoundID] OR 33528[CompoundID] OR 5365075[CompoundID] OR 62829[CompoundID] OR 162381[CompoundID] OR 517202[CompoundI
D] OR 6433353[CompoundID] OR 2730[CompoundID] OR 5372405[CompoundID] OR 36081[CompoundID] OR 3120[CompoundID] OR 3017[CompoundID] OR 2969[CompoundID] OR 18827[CompoundID] OR 19518[CompoundID] OR 19658
[CompoundID] OR 38283[CompoundID] OR 2758[CompoundID] OR 10112[CompoundID] OR 10340[CompoundID] OR 712[CompoundID] OR 5794[CompoundID] OR 3347[CompoundID] OR 104150[CompoundID] OR 2912[CompoundID] OR
2450[CompoundID] OR 40326[CompoundID] OR 40585[CompoundID] OR 517055[CompoundID] OR 10913[CompoundID] OR 108242[CompoundID] OR 62097[CompoundID] OR 41679[CompoundID] OR 54680676[CompoundID] OR 62118[C
ompoundID] OR 753[CompoundID] OR 1030[CompoundID] OR 23673837[CompoundID] OR 54678504[CompoundID] OR 11442[CompoundID] OR 11463[CompoundID] OR 22230[CompoundID] OR 440917[CompoundID] OR 6054[CompoundI
D] OR 43234[CompoundID] OR 22629[CompoundID] OR 3039[CompoundID] OR 2735067[CompoundID] OR 6144[CompoundID] OR 702[CompoundID] OR 284[CompoundID] OR 176[CompoundID] OR 91688[CompoundID] OR 22947[Compo
undID] OR 47445[CompoundID] OR 1711973[CompoundID] OR 243[CompoundID] OR 10342051[CompoundID] OR 5281875[CompoundID] OR 3776[CompoundID] OR 6224[CompoundID] OR 104926[CompoundID] OR 8755[CompoundID] O
R 338[CompoundID] OR 123622[CompoundID] OR 23954[CompoundID] OR 6334[CompoundID] OR 2537[CompoundID] OR 24261[CompoundID] OR 23665760[CompoundID] OR 83975[CompoundID] OR 784[CompoundID] OR 24437[Compo
undID] OR 5360315[CompoundID] OR 311[CompoundID] OR 6549[CompoundID] OR 107689[CompoundID] OR 17100[CompoundID] OR 24976875[CompoundID] OR 6654[CompoundID] OR 71245[CompoundID] OR 6442842[CompoundID]
OR 62334[CompoundID] OR 54698175[CompoundID] OR 6328154[CompoundID] OR 24762[CompoundID] OR 440950[CompoundID] OR 7017[CompoundID] OR 5281873[CompoundID] OR 323[CompoundID] OR 5281167[CompoundID] OR 7
175[CompoundID] OR 7292[CompoundID] OR 6335613[CompoundID] OR 7456[CompoundID] OR 7462[CompoundID]

> <resultIndex>
52

> <resultRange>
1-176

> <textQuery>
7628,244,25059,7618,7641,5053,637511,7714,7762,25429,8842,7794,637566,7843,174,7870,86102,7888,7896,1140,8042,8058,8078,8087,8117,8133,115224,8175,8194,445639,4944,8294,93541,8360,8363,656612,125098,3
352,3303913,64805,31200,1712058,31236,31239,31265,31266,31276,6950273,518659,14896,14798,14829,14830,8635,23266,4284,8693,22311,8759,8785,2723810,8857,3893,9936739,516892,5430,9017,15433,107720,955208
1,164825,10275455,16666,9839306,5282227,23676745,32881,91581,39800,33344,15962220,33528,5365075,62829,162381,517202,6433353,2730,5372405,36081,3120,3017,2969,18827,19518,19658,38283,2758,10112,10340,7
12,5794,3347,104150,2912,2450,40326,40585,517055,10913,108242,62097,41679,54680676,62118,753,1030,23673837,54678504,11442,11463,22230,440917,6054,43234,22629,3039,2735067,6144,702,284,176,91688,22947,
47445,1711973,243,10342051,5281875,3776,6224,104926,8755,338,123622,23954,6334,2537,24261,23665760,83975,784,24437,5360315,311,6549,107689,17100,24976875,6654,71245,6442842,62334,54698175,6328154,2476
2,440950,7017,5281873,323,5281167,7175,7292,6335613,7456,7462

$$$$
91,581
  SciTegic10191915303D

 52 54  0  0  1  0            999 V2000
    0.7850   -0.6700    4.7070 C   0  0
   -0.4650   -1.4860    4.5290 C   0  0
   -1.5880   -0.8650    4.1370 C   0  0
   -1.5800    0.6350    3.8960 C   0  0  3  0  0  0
   -1.1500    1.1950    2.5550 C   0  0  3  0  0  0
   -2.6090    1.2680    2.9740 C   0  0
   -3.1540    2.6350    3.3690 C   0  0
   -3.6190    0.3630    2.2730 C   0  0
   -0.7230    0.2620    1.4350 C   0  0
   -0.4940   -0.9080    1.6420 O   0  0
   -0.6270    0.8360    0.2400 O   0  0
   -0.2700   -0.0880   -0.7760 C   0  0
   -0.1890    0.6170   -2.0820 C   0  0
   -1.3050    1.3180   -2.5720 C   0  0
   -1.2290    1.9840   -3.8070 C   0  0
   -0.0350    1.9510   -4.5510 C   0  0
    1.0820    1.2520   -4.0650 C   0  0
    1.0020    0.5860   -2.8280 C   0  0
    2.1990    1.2210   -4.7620 O   0  0
    2.8980    0.1050   -4.7620 C   0  0
    2.2440   -1.1390   -4.7620 C   0  0
    2.9900   -2.3300   -4.7620 C   0  0
    4.3950   -2.2790   -4.7620 C   0  0
    5.0510   -1.0390   -4.7620 C   0  0
    4.3050    0.1520   -4.7620 C   0  0
   -0.5160   -2.9710    4.7730 C   0  0
    0.6500    0.1990    5.3510 H   0  0
    1.1350   -0.3130    3.7380 H   0  0
    1.5740   -1.2850    5.1390 H   0  0
   -2.5270   -1.3710    3.9730 H   0  0
   -1.2890    1.2210    4.7690 H   0  0
   -0.5920    2.1290    2.5880 H   0  0
   -2.3990    3.2460    3.8630 H   0  0
   -3.9980    2.5310    4.0510 H   0  0
   -3.5000    3.1800    2.4900 H   0  0
   -3.1700   -0.5800    1.9610 H   0  0
   -4.0240    0.8520    1.3870 H   0  0
   -4.4530    0.1310    2.9350 H   0  0
   -1.0410   -0.8580   -0.8260 H   0  0
    0.7070   -0.5080   -0.5290 H   0  0
   -2.2230    1.3460   -2.0040 H   0  0
   -2.0840    2.5230   -4.1840 H   0  0
    0.0190    2.4650   -5.5000 H   0  0
    1.8610    0.0470   -2.4530 H   0  0
    1.1640   -1.1820   -4.7620 H   0  0
    2.4820   -3.2850   -4.7620 H   0  0
    4.9670   -3.1950   -4.7620 H   0  0
    6.1310   -0.9980   -4.7620 H   0  0
    4.8130    1.1050   -4.7620 H   0  0
   -1.1780   -3.4430    4.0490 H   0  0
    0.4900   -3.3890    4.7280 H   0  0
   -0.9140   -3.1700    5.7690 H   0  0
  1  2  1  0
  2  3  2  0
  2 26  1  0
  3  4  1  0
  4  5  1  0
  4  6  1  0
  5  6  1  0
  5  9  1  0
  6  7  1  0
  6  8  1  0
  9 10  2  0
  9 11  1  0
 11 12  1  0
 12 13  1  0
 13 14  2  0
 13 18  1  0
 14 15  1  0
 15 16  2  0
 16 17  1  0
 17 18  2  0
 17 19  1  0
 19 20  1  0
 20 21  2  0
 20 25  1  0
 21 22  1  0
 22 23  2  0
 23 24  1  0
 24 25  2  0
  1 27  1  0
  1 28  1  0
  1 29  1  0
  3 30  1  0
  4 31  1  0
  5 32  1  0
  7 33  1  0
  7 34  1  0
  7 35  1  0
  8 36  1  0
  8 37  1  0
  8 38  1  0
 12 39  1  0
 12 40  1  0
 14 41  1  0
 15 42  1  0
 16 43  1  0
 18 44  1  0
 21 45  1  0
 22 46  1  0
 23 47  1  0
 24 48  1  0
 25 49  1  0
 26 50  1  0
 26 51  1  0
 26 52  1  0
M  END
> <Name>
91,581

> <OBJECTID>
9223372264491384843

> <ActiveAidCount>
0

> <AtomChiralCount>
2

> <AtomChiralDefCount>
2

> <AtomChiralUndefCount>
0

> <BondChiralCount>
0

> <BondChiralDefCount>
0

> <BondChiralUndefCount>
0

> <CID>
91581

> <CanonicalSmiles>
CC(=CC1C(C1(C)C)C(=O)OCC2=CC(=CC=C2)OC3=CC=CC=C3)C

> <Complexity>
512

> <CovalentUnitCount>
1

> <CreateDate>
2005/08/08 00:00

> <HeavyAtomCount>
26

> <HydrogenBondAcceptorCount>
3

> <HydrogenBondDonorCount>
0

> <IUPACName>
(3-phenoxyphenyl)methyl (1R,3R)-2,2-dimethyl-3-(2-methylprop-1-enyl)cyclopropane-1-carboxylate

> <InChI>
InChI=1S/C23H26O3/c1-16(2)13-20-21(23(20,3)4)22(24)25-15-17-9-8-12-19(14-17)26-18-10-6-5-7-11-18/h5-14,20-21H,15H2,1-4H3/t20-,21+/m1/s1

> <InChIKey>
SBNFWQZLDJGRLK-RTWAWAEBSA-N

> <IsomericSmiles>
CC(=C[C@@H]1[C@H](C1(C)C)C(=O)OCC2=CC(=CC=C2)OC3=CC=CC=C3)C

> <IsotopeAtomCount>
0

> <MeSHHeading>
phenothrin

> <MeSHTerm>
d-phenothrin
phenothrin, (1S-trans)-isomer
phenothrin
S-2539
phenothrin, (1S-cis)-isomer
phenothrin, (1R-cis)-isomer
phenothrin, (cis-(+-))-isomer
phenothrin, (trans-(+-))-isomer
Sumithrin
phenothrin, (1R-trans)-isomer
(3-phenoxyphenyl)methyl cis,trans-(+)-2,2-dimethyl-3-(2-methylpropenyl)cyclopropanecarboxylate

> <MolecularFormula>
C23H26O3

> <MolecularWeight>
350.4

> <PharmAction>
Toxic Actions
Pesticides
Chemical Actions and Uses
Agrochemicals
Specialty Uses of Chemicals
Insecticides

> <RotatableBondCount>
7

> <Smiles>
C\C(\C)=C/C1C(C)(C)C1C(OCc2cc(Oc3ccccc3)ccc2)=O

> <SourceCategory>
Chemical Vendors
Curation Efforts
Governmental Organizations
Legacy Depositors
NIH Initiatives
Subscription Services
Journal Publishers
Research and Development

> <Synonym>
26046-85-5
D-Phenothrin
(1R)-trans-Phenothrin
d-trans-Phenothrin
UNII-6JX527V7HJ
phenothrin [(1R)-trans- isomer]
(1R,3R)-3-Phenoxybenzyl 2,2-dimethyl-3-(2-methylprop-1-en-1-yl)cyclopropanecarboxylate
EINECS 247-431-2
6JX527V7HJ
(3-phenoxyphenyl)methyl (1R,3R)-2,2-dimethyl-3-(2-methylprop-1-enyl)cyclopropane-1-carboxylate
m-Phenoxybenzyl (1R-trans)-2,2-dimethyl-3-(2-methylprop-1-enyl)cyclopropanecarboxylate
Cyclopropanecarboxylic acid, 2,2-dimethyl-3-(2-methyl-1-propenyl)-, (3-phenoxyphenyl)methyl ester, (1R-trans)-
3-phenoxybenzyl (1R,3R)-2,2-dimethyl-3-(2-methylprop-1-en-1-yl)cyclopropanecarboxylate
1R-trans-Phenothrin
(-)-trans-Phenothrin
Biophenothrin
delta-phenothrin
AC1L3MD4
AC1Q66EL
SCHEMBL8649333
DTXSID1058347
CHEBI:39405
s160
ZINC608024
AKOS015895466
3-phenoxybenzyl(3r)-2,2-dimethyl-3-(2-methylprop-1-en-1-yl)cyclopropanecarboxylate
AJ-23697
LS-58714
LS-58716
LS-58717
ZB014588
AX8126902
FT-0630521
046D855
A818151
C-20630
I06-1104
UNII-707484X33X component SBNFWQZLDJGRLK-RTWAWAEBSA-N
(1R,3R)-2,2-dimethyl-3-(2-methylprop-1-enyl)-1-cyclopropanecarboxylic acid (3-phenoxyphenyl)methyl ester
51186-86-8
Cyclopropanecarboxylic acid, 2,2-dimethyl-3-(2-methyl-1-propen-1-yl)-, (3-phenoxyphenyl)methyl ester, (1R,3R)-
Cyclopropanecarboxylic acid, 2,2-dimethyl-3-(2-methyl-1-propenyl)-, (3-phenoxyphenyl)methyl ester, trans-(+-)-

> <TPSA>
35.5

> <TotalAidCount>
0

> <TotalFormalCharge>
0

> <XLogP>
6.2

> <database>
PubChem Compound

> <matchingCount>
176

> <primaryID>
91581

> <queryTranslation>
7628[CompoundID] OR 244[CompoundID] OR 25059[CompoundID] OR 7618[CompoundID] OR 7641[CompoundID] OR 5053[CompoundID] OR 637511[CompoundID] OR 7714[CompoundID] OR 7762[CompoundID] OR 25429[CompoundID]
OR 8842[CompoundID] OR 7794[CompoundID] OR 637566[CompoundID] OR 7843[CompoundID] OR 174[CompoundID] OR 7870[CompoundID] OR 86102[CompoundID] OR 7888[CompoundID] OR 7896[CompoundID] OR 1140[CompoundID
] OR 8042[CompoundID] OR 8058[CompoundID] OR 8078[CompoundID] OR 8087[CompoundID] OR 8117[CompoundID] OR 8133[CompoundID] OR 115224[CompoundID] OR 8175[CompoundID] OR 8194[CompoundID] OR 445639[Compou
ndID] OR 4944[CompoundID] OR 8294[CompoundID] OR 93541[CompoundID] OR 8360[CompoundID] OR 8363[CompoundID] OR 656612[CompoundID] OR 125098[CompoundID] OR 3352[CompoundID] OR 3303913[CompoundID] OR 648
05[CompoundID] OR 31200[CompoundID] OR 1712058[CompoundID] OR 31236[CompoundID] OR 31239[CompoundID] OR 31265[CompoundID] OR 31266[CompoundID] OR 31276[CompoundID] OR 6950273[CompoundID] OR 518659[Com
poundID] OR 14896[CompoundID] OR 14798[CompoundID] OR 14829[CompoundID] OR 14830[CompoundID] OR 8635[CompoundID] OR 23266[CompoundID] OR 4284[CompoundID] OR 8693[CompoundID] OR 22311[CompoundID] OR 87
59[CompoundID] OR 8785[CompoundID] OR 2723810[CompoundID] OR 8857[CompoundID] OR 3893[CompoundID] OR 9936739[CompoundID] OR 516892[CompoundID] OR 5430[CompoundID] OR 9017[CompoundID] OR 15433[Compound
ID] OR 107720[CompoundID] OR 9552081[CompoundID] OR 164825[CompoundID] OR 10275455[CompoundID] OR 16666[CompoundID] OR 9839306[CompoundID] OR 5282227[CompoundID] OR 23676745[CompoundID] OR 32881[Compo
undID] OR 91581[CompoundID] OR 39800[CompoundID] OR 33344[CompoundID] OR 15962220[CompoundID] OR 33528[CompoundID] OR 5365075[CompoundID] OR 62829[CompoundID] OR 162381[CompoundID] OR 517202[CompoundI
D] OR 6433353[CompoundID] OR 2730[CompoundID] OR 5372405[CompoundID] OR 36081[CompoundID] OR 3120[CompoundID] OR 3017[CompoundID] OR 2969[CompoundID] OR 18827[CompoundID] OR 19518[CompoundID] OR 19658
[CompoundID] OR 38283[CompoundID] OR 2758[CompoundID] OR 10112[CompoundID] OR 10340[CompoundID] OR 712[CompoundID] OR 5794[CompoundID] OR 3347[CompoundID] OR 104150[CompoundID] OR 2912[CompoundID] OR
2450[CompoundID] OR 40326[CompoundID] OR 40585[CompoundID] OR 517055[CompoundID] OR 10913[CompoundID] OR 108242[CompoundID] OR 62097[CompoundID] OR 41679[CompoundID] OR 54680676[CompoundID] OR 62118[C
ompoundID] OR 753[CompoundID] OR 1030[CompoundID] OR 23673837[CompoundID] OR 54678504[CompoundID] OR 11442[CompoundID] OR 11463[CompoundID] OR 22230[CompoundID] OR 440917[CompoundID] OR 6054[CompoundI
D] OR 43234[CompoundID] OR 22629[CompoundID] OR 3039[CompoundID] OR 2735067[CompoundID] OR 6144[CompoundID] OR 702[CompoundID] OR 284[CompoundID] OR 176[CompoundID] OR 91688[CompoundID] OR 22947[Compo
undID] OR 47445[CompoundID] OR 1711973[CompoundID] OR 243[CompoundID] OR 10342051[CompoundID] OR 5281875[CompoundID] OR 3776[CompoundID] OR 6224[CompoundID] OR 104926[CompoundID] OR 8755[CompoundID] O
R 338[CompoundID] OR 123622[CompoundID] OR 23954[CompoundID] OR 6334[CompoundID] OR 2537[CompoundID] OR 24261[CompoundID] OR 23665760[CompoundID] OR 83975[CompoundID] OR 784[CompoundID] OR 24437[Compo
undID] OR 5360315[CompoundID] OR 311[CompoundID] OR 6549[CompoundID] OR 107689[CompoundID] OR 17100[CompoundID] OR 24976875[CompoundID] OR 6654[CompoundID] OR 71245[CompoundID] OR 6442842[CompoundID]
OR 62334[CompoundID] OR 54698175[CompoundID] OR 6328154[CompoundID] OR 24762[CompoundID] OR 440950[CompoundID] OR 7017[CompoundID] OR 5281873[CompoundID] OR 323[CompoundID] OR 5281167[CompoundID] OR 7
175[CompoundID] OR 7292[CompoundID] OR 6335613[CompoundID] OR 7456[CompoundID] OR 7462[CompoundID]

> <resultIndex>
53

> <resultRange>
1-176

> <textQuery>
7628,244,25059,7618,7641,5053,637511,7714,7762,25429,8842,7794,637566,7843,174,7870,86102,7888,7896,1140,8042,8058,8078,8087,8117,8133,115224,8175,8194,445639,4944,8294,93541,8360,8363,656612,125098,3
352,3303913,64805,31200,1712058,31236,31239,31265,31266,31276,6950273,518659,14896,14798,14829,14830,8635,23266,4284,8693,22311,8759,8785,2723810,8857,3893,9936739,516892,5430,9017,15433,107720,955208
1,164825,10275455,16666,9839306,5282227,23676745,32881,91581,39800,33344,15962220,33528,5365075,62829,162381,517202,6433353,2730,5372405,36081,3120,3017,2969,18827,19518,19658,38283,2758,10112,10340,7
12,5794,3347,104150,2912,2450,40326,40585,517055,10913,108242,62097,41679,54680676,62118,753,1030,23673837,54678504,11442,11463,22230,440917,6054,43234,22629,3039,2735067,6144,702,284,176,91688,22947,
47445,1711973,243,10342051,5281875,3776,6224,104926,8755,338,123622,23954,6334,2537,24261,23665760,83975,784,24437,5360315,311,6549,107689,17100,24976875,6654,71245,6442842,62334,54698175,6328154,2476
2,440950,7017,5281873,323,5281167,7175,7292,6335613,7456,7462

$$$$
86,102
  SciTegic10191915303D

 43 44  0  0  1  0            999 V2000
   -3.0210    2.4590    0.2950 N   0  0
   -2.7850    1.1950   -0.0370 N   0  0
   -3.5160    3.1250   -0.7620 C   0  0
   -3.5840    2.2230   -1.7970 N   0  0
   -3.1210    1.0120   -1.3280 C   0  0
   -2.2420    0.1640    0.8590 C   0  0
   -0.7730   -0.1210    0.5410 C   0  0  3  0  0  0
   -0.1480   -0.6680    1.8240 C   0  0
   -0.1440    1.1000    0.2280 O   0  0
   -0.6020   -1.0660   -0.6490 C   0  0
   -0.0510   -0.3590   -1.8890 C   0  0
    1.4180   -0.1560   -1.7930 C   0  0
    1.9570    1.1410   -1.8810 C   0  0
    3.3460    1.3340   -1.7910 C   0  0
    4.2010    0.2310   -1.6130 C   0  0
    3.6620   -1.0660   -1.5240 C   0  0
    2.2740   -1.2580   -1.6130 C   0  0
    5.8970    0.4670   -1.5060 Cl  0  0
    1.2600   -1.2230    1.6030 C   0  0
   -0.2170    0.3240    2.9840 C   0  0
   -1.2050   -1.7700    1.9260 C   0  0
   -3.8030    4.1680   -0.7930 H   0  0
   -3.0450    0.0920   -1.8910 H   0  0
   -2.3070    0.5100    1.8910 H   0  0
   -2.8400   -0.7420    0.7730 H   0  0
    0.7750    1.0330    0.5290 H   0  0
   -1.5410   -1.5700   -0.8790 H   0  0
    0.0230   -1.9160   -0.3790 H   0  0
   -0.5430    0.6020   -2.0350 H   0  0
   -0.2790   -0.9280   -2.7890 H   0  0
    1.3070    1.9920   -2.0180 H   0  0
    3.7440    2.3360   -1.8580 H   0  0
    4.3070   -1.9220   -1.3870 H   0  0
    1.8650   -2.2560   -1.5430 H   0  0
    1.8150   -1.3070    2.5390 H   0  0
    1.8300   -0.5720    0.9370 H   0  0
    1.2190   -2.2110    1.1480 H   0  0
    0.5900    0.1700    3.6990 H   0  0
   -1.1600    0.2250    3.5210 H   0  0
   -0.1480    1.3500    2.6190 H   0  0
   -0.8220   -2.6210    2.4880 H   0  0
   -2.1050   -1.3950    2.4140 H   0  0
   -1.4860   -2.1250    0.9340 H   0  0
  1  2  1  0
  1  3  2  0
  3  4  1  0
  4  5  2  0
  2  5  1  0
  2  6  1  0
  6  7  1  0
  7  8  1  0
  7  9  1  0
  7 10  1  0
 10 11  1  0
 11 12  1  0
 12 13  2  0
 13 14  1  0
 14 15  2  0
 15 16  1  0
 16 17  2  0
 12 17  1  0
 15 18  1  0
  8 19  1  0
  8 20  1  0
  8 21  1  0
  3 22  1  0
  5 23  1  0
  6 24  1  0
  6 25  1  0
  9 26  1  0
 10 27  1  0
 10 28  1  0
 11 29  1  0
 11 30  1  0
 13 31  1  0
 14 32  1  0
 16 33  1  0
 17 34  1  0
 19 35  1  0
 19 36  1  0
 19 37  1  0
 20 38  1  0
 20 39  1  0
 20 40  1  0
 21 41  1  0
 21 42  1  0
 21 43  1  0
M  END
> <Name>
86,102

> <OBJECTID>
9223372268786352139

> <ActiveAidCount>
67

> <AtomChiralCount>
1

> <AtomChiralDefCount>
0

> <AtomChiralUndefCount>
1

> <BondChiralCount>
0

> <BondChiralDefCount>
0

> <BondChiralUndefCount>
0

> <CID>
86102

> <CanonicalSmiles>
CC(C)(C)C(CCC1=CC=C(C=C1)Cl)(CN2C=NC=N2)O

> <Complexity>
326

> <CovalentUnitCount>
1

> <CreateDate>
2005/03/27 00:00

> <HeavyAtomCount>
21

> <HydrogenBondAcceptorCount>
3

> <HydrogenBondDonorCount>
1

> <IUPACName>
1-(4-chlorophenyl)-4,4-dimethyl-3-(1,2,4-triazol-1-ylmethyl)pentan-3-ol

> <InChI>
InChI=1S/C16H22ClN3O/c1-15(2,3)16(21,10-20-12-18-11-19-20)9-8-13-4-6-14(17)7-5-13/h4-7,11-12,21H,8-10H2,1-3H3

> <InChIKey>
PXMNMQRDXWABCY-UHFFFAOYSA-N

> <IsomericSmiles>
CC(C)(C)C(CCC1=CC=C(C=C1)Cl)(CN2C=NC=N2)O

> <IsotopeAtomCount>
0

> <MeSHHeading>
tebuconazole

> <MeSHTerm>
1H-1,2,4-triazole-1-ethanol, alpha-(2-(4- chlorophenyl)ethyl)-alpha-(1,1-dimethylethyl)-
alpha-(2-(4-chlorophenyl)ethyl)-alpha-(1,1-dimethylethyl)- 1H-1,2,4-triazole-1-ethanol
tebuconazole
Folicur
(RS)-1-(4-chlorophenyl)-4,4-dimethyl-3-(1H-1,2,4-triazol-1- ylmethyl)pentan-3-ol

> <MolecularFormula>
C16H22ClN3O

> <MolecularWeight>
307.82

> <PharmAction>
Toxic Actions
Chemical Actions and Uses
Fungicides, Industrial
Agrochemicals
Pesticides
Specialty Uses of Chemicals

> <RotatableBondCount>
6

> <Smiles>
n1cncn1CC(CCc2ccc(Cl)cc2)(O)C(C)(C)C

> <SourceCategory>
Chemical Vendors
Legacy Depositors
Research and Development
Curation Efforts
Governmental Organizations
Subscription Services
Journal Publishers
NIH Initiatives

> <Synonym>
Tebuconazole
107534-96-3
Folicur
Fenetrazole
Tebuconazol
Ethyltrianol
Terbuconazole
Terbutrazole
Etiltrianol
Elite
Raxil
Preventol A 8
LYNX
3-((1H-1,2,4-Triazol-1-yl)methyl)-1-(4-chlorophenyl)-4,4-dimethylpentan-3-ol
Tebuconazole [ISO]
BAY-HWG 1608
80443-41-0
HWG 1608
1-(4-Chlorophenyl)-4,4-dimethyl-3-(1,2,4-triazol-1-ylmethyl)pentan-3-ol
HSDB 7448
C16H22ClN3O
1-(4-chlorophenyl)-4,4-dimethyl-3-(1H-1,2,4-triazol-1-ylmethyl)pentan-3-ol
CHEBI:83779
PXMNMQRDXWABCY-UHFFFAOYSA-N
1-(4-Chlorophenyl)-4,4-dimethyl-3-(1H-1,2,4-triazol-1-ylmethyl)-3-pentanol
(RS)-1-(4-Chlorophenyl)-4,4-dimethyl-3-(1H-1,2,4-triazol-1-ylmethyl)pentan-3-ol
(RS)-1-p-Chlorophenyl-4,4-dimethyl-3-(1H-1,2,4-triazol-1-ylmethyl)pentan-3-ol
alpha-(2-(4-Chlorophenyl)ethyl)-alpha-(1,1-dimethylethyl)-1H-1,2,4-triazole-1-ethanol
DSSTox_CID_12113
DSSTox_RID_78905
DSSTox_GSID_32113
Horizont
Corail
Tebuconazole (+-)
CAS-107534-96-3
Tebuconazole (unspecified)
1-(4-CHLOROPHENYL)-4,4-DIMETHYL-3-(1,2,4-TRIAZOLE-1-YL-METHYL)PENTANE-3-OL
1H-1,2,4-Triazole-1-ethanol, alpha-(2-(4-chlorophenyl)ethyl)-alpha-(1,1-dimethylethyl)-
Silvacur (Salt/Mix)
AC1L3AWT
AC1Q1LRN
AC1Q3NSG
(.+/-.)-Tebuconazole
EC 403-640-2
SCHEMBL21789
CHEMBL487186
TRI039
DTXSID9032113
CTK5E7796
KS-00000INP
TCMDC-143614
HY-B0852
ZX-AT013331
Tox21_202331
Tox21_300487
BG0674
EBD900712
FC0774
MFCD02674797
AKOS015895348
API0004331
CS-8170
LS-1802
MCULE-5404194440
OR59970
Tebuconazole 10 microg/mL in Isooctane
Tebuconazole 100 microg/mL in Methanol
NCGC00091496-01
NCGC00091496-02
NCGC00091496-03
NCGC00091496-04
NCGC00254491-01
NCGC00259880-01
Tebuconazole 100 microg/mL in Isooctane
1H-1,2,4-Triazole-1-ethanol, .alpha.-[2-(4-chlorophenyl)ethyl]-.alpha.-(1,1-dimethylethyl)-
AC-12496
AK402770
AN-33807
AN-36400
AS-13966
I817
SC-57865
Tebuconazole 10 microg/mL in Acetonitrile
AB1004874
Tebuconazole 100 microg/mL in Acetonitrile
TL8000264
TR-001831
FT-0651883
FT-0654015
C18489
534T963
A801720
I06-0706
I06-1158
A-[2-(4-CHLOROPHENYL)ETHYL]-A-(1,1-DIMETHYLETHYL)-
1-(4-chlorophenyl)-4,4-dimethyl-3-(1,2,4-triazol-1-ylmethyl)-3-pentanol
1-(4-Chlorophenyl)-4,4-dimethyl-3-(1,2,4-triazolylmethyl)pentan-3-ol
1H-1,2,4-Triazole-1-ethanol, .alpha.-(2-(4-chlorophenyl)ethyl)-.alpha.
1-(4-chloro-phenyl)-4,4-dimethyl-3-(1,2,4-triazol-1-yl-methyl)-pentan-3-ol
1-(4-chlorophenyl)-3-(1,2,4-triazol-1-ylmethyl)-4,4-dimethyl-pentan-3-ol
1-(4-chlorophenyl)-4,4-dimethyl-3-(1,2,4-triazol-1-yl-methyl)-3-pentanol
1-(4-chlorophenyl)-4,4-dimethyl-3-(1,2,4-triazol-1-yl-methyl)-pentan-3-ol
1-(4-chlorophenyl)-4,4-dimethyl-3-(1,2,4-triazol-1-yl-methyl)-pentane-3-ol
1-(4-chlorophenyl)-4,4-dimethyl-3-(1,2,4-triazol-l-yl-methyl)-pentan-3-ol
1-(4-Chlorophenyl)-4,4-dimethyl-3-(1H-1,2,4-triazol-1-ylmethyl)-3-pentanol #
1-(4-Chlorophenyl)-4,4-dimethyl-3-(1H-1,2,4-triazole-1-ylmethyl)-3-pentanol
1H-1,2,4-Triazole-1-ethanol, |A-[2-(4-chlorophenyl)ethyl]-|A-(1,1-dimethylethyl)-
( inverted exclamation markA)-1-(4-Chlorophenyl)-4,4-dimethyl-3-(1,2,4-triazol-1-ylmethyl)pentan-3-ol
(.+/-.)-.alpha.-[2-(4-Chlorophenyl)ethyl]-.alpha.-(1,1-dimethylethyl)-1H-1,2,4-triazole-1-ethanol
.alpha.-(2-(4-Chlorophenyl)ethyl)-.alpha.-(1,1-dimethylethyl)-1H-1,2,4-triazole-1-ethanol
1H-1,2,4-Triazole-1-ethanol, .alpha.-(2-(4-chlorophenyl)ethyl)-.alpha.-(1,1-dimethylethyl)-, (.+/-.)-
1H-1,2,4-Triazole-1-ethanol, alpha-(2-(4-chlorophenyl)ethyl)-alpha-(1,1-dimethylethyl)-, (+-)-
Tebuconazole; 2-T-Butyl-4-(4-chlorophenyl)-1-(1,2,4-triazole-1-yl)-2-butanol; 2-tert-Butyl-4-(4-chlorophenyl)-1-(1,2,4-triazol-1-yl)-2-butanol
Tebuconazole;1-(4-CHLOROPHENYL)-4,4-DIMETHYL-3-(1H-1,2,4-TRIAZOL-1-YLMETHYL)-3-PENTANOL

> <TPSA>
50.9

> <TotalAidCount>
646

> <TotalFormalCharge>
0

> <XLogP>
3.7

> <database>
PubChem Compound

> <matchingCount>
176

> <primaryID>
86102

> <queryTranslation>
7628[CompoundID] OR 244[CompoundID] OR 25059[CompoundID] OR 7618[CompoundID] OR 7641[CompoundID] OR 5053[CompoundID] OR 637511[CompoundID] OR 7714[CompoundID] OR 7762[CompoundID] OR 25429[CompoundID]
OR 8842[CompoundID] OR 7794[CompoundID] OR 637566[CompoundID] OR 7843[CompoundID] OR 174[CompoundID] OR 7870[CompoundID] OR 86102[CompoundID] OR 7888[CompoundID] OR 7896[CompoundID] OR 1140[CompoundID
] OR 8042[CompoundID] OR 8058[CompoundID] OR 8078[CompoundID] OR 8087[CompoundID] OR 8117[CompoundID] OR 8133[CompoundID] OR 115224[CompoundID] OR 8175[CompoundID] OR 8194[CompoundID] OR 445639[Compou
ndID] OR 4944[CompoundID] OR 8294[CompoundID] OR 93541[CompoundID] OR 8360[CompoundID] OR 8363[CompoundID] OR 656612[CompoundID] OR 125098[CompoundID] OR 3352[CompoundID] OR 3303913[CompoundID] OR 648
05[CompoundID] OR 31200[CompoundID] OR 1712058[CompoundID] OR 31236[CompoundID] OR 31239[CompoundID] OR 31265[CompoundID] OR 31266[CompoundID] OR 31276[CompoundID] OR 6950273[CompoundID] OR 518659[Com
poundID] OR 14896[CompoundID] OR 14798[CompoundID] OR 14829[CompoundID] OR 14830[CompoundID] OR 8635[CompoundID] OR 23266[CompoundID] OR 4284[CompoundID] OR 8693[CompoundID] OR 22311[CompoundID] OR 87
59[CompoundID] OR 8785[CompoundID] OR 2723810[CompoundID] OR 8857[CompoundID] OR 3893[CompoundID] OR 9936739[CompoundID] OR 516892[CompoundID] OR 5430[CompoundID] OR 9017[CompoundID] OR 15433[Compound
ID] OR 107720[CompoundID] OR 9552081[CompoundID] OR 164825[CompoundID] OR 10275455[CompoundID] OR 16666[CompoundID] OR 9839306[CompoundID] OR 5282227[CompoundID] OR 23676745[CompoundID] OR 32881[Compo
undID] OR 91581[CompoundID] OR 39800[CompoundID] OR 33344[CompoundID] OR 15962220[CompoundID] OR 33528[CompoundID] OR 5365075[CompoundID] OR 62829[CompoundID] OR 162381[CompoundID] OR 517202[CompoundI
D] OR 6433353[CompoundID] OR 2730[CompoundID] OR 5372405[CompoundID] OR 36081[CompoundID] OR 3120[CompoundID] OR 3017[CompoundID] OR 2969[CompoundID] OR 18827[CompoundID] OR 19518[CompoundID] OR 19658
[CompoundID] OR 38283[CompoundID] OR 2758[CompoundID] OR 10112[CompoundID] OR 10340[CompoundID] OR 712[CompoundID] OR 5794[CompoundID] OR 3347[CompoundID] OR 104150[CompoundID] OR 2912[CompoundID] OR
2450[CompoundID] OR 40326[CompoundID] OR 40585[CompoundID] OR 517055[CompoundID] OR 10913[CompoundID] OR 108242[CompoundID] OR 62097[CompoundID] OR 41679[CompoundID] OR 54680676[CompoundID] OR 62118[C
ompoundID] OR 753[CompoundID] OR 1030[CompoundID] OR 23673837[CompoundID] OR 54678504[CompoundID] OR 11442[CompoundID] OR 11463[CompoundID] OR 22230[CompoundID] OR 440917[CompoundID] OR 6054[CompoundI
D] OR 43234[CompoundID] OR 22629[CompoundID] OR 3039[CompoundID] OR 2735067[CompoundID] OR 6144[CompoundID] OR 702[CompoundID] OR 284[CompoundID] OR 176[CompoundID] OR 91688[CompoundID] OR 22947[Compo
undID] OR 47445[CompoundID] OR 1711973[CompoundID] OR 243[CompoundID] OR 10342051[CompoundID] OR 5281875[CompoundID] OR 3776[CompoundID] OR 6224[CompoundID] OR 104926[CompoundID] OR 8755[CompoundID] O
R 338[CompoundID] OR 123622[CompoundID] OR 23954[CompoundID] OR 6334[CompoundID] OR 2537[CompoundID] OR 24261[CompoundID] OR 23665760[CompoundID] OR 83975[CompoundID] OR 784[CompoundID] OR 24437[Compo
undID] OR 5360315[CompoundID] OR 311[CompoundID] OR 6549[CompoundID] OR 107689[CompoundID] OR 17100[CompoundID] OR 24976875[CompoundID] OR 6654[CompoundID] OR 71245[CompoundID] OR 6442842[CompoundID]
OR 62334[CompoundID] OR 54698175[CompoundID] OR 6328154[CompoundID] OR 24762[CompoundID] OR 440950[CompoundID] OR 7017[CompoundID] OR 5281873[CompoundID] OR 323[CompoundID] OR 5281167[CompoundID] OR 7
175[CompoundID] OR 7292[CompoundID] OR 6335613[CompoundID] OR 7456[CompoundID] OR 7462[CompoundID]

> <resultIndex>
54

> <resultRange>
1-176

> <textQuery>
7628,244,25059,7618,7641,5053,637511,7714,7762,25429,8842,7794,637566,7843,174,7870,86102,7888,7896,1140,8042,8058,8078,8087,8117,8133,115224,8175,8194,445639,4944,8294,93541,8360,8363,656612,125098,3
352,3303913,64805,31200,1712058,31236,31239,31265,31266,31276,6950273,518659,14896,14798,14829,14830,8635,23266,4284,8693,22311,8759,8785,2723810,8857,3893,9936739,516892,5430,9017,15433,107720,955208
1,164825,10275455,16666,9839306,5282227,23676745,32881,91581,39800,33344,15962220,33528,5365075,62829,162381,517202,6433353,2730,5372405,36081,3120,3017,2969,18827,19518,19658,38283,2758,10112,10340,7
12,5794,3347,104150,2912,2450,40326,40585,517055,10913,108242,62097,41679,54680676,62118,753,1030,23673837,54678504,11442,11463,22230,440917,6054,43234,22629,3039,2735067,6144,702,284,176,91688,22947,
47445,1711973,243,10342051,5281875,3776,6224,104926,8755,338,123622,23954,6334,2537,24261,23665760,83975,784,24437,5360315,311,6549,107689,17100,24976875,6654,71245,6442842,62334,54698175,6328154,2476
2,440950,7017,5281873,323,5281167,7175,7292,6335613,7456,7462

$$$$
83,975
  SciTegic10191915303D

 49 51  0  0  1  0            999 V2000
    1.1990   -0.8070    0.7170 O   0  0
    3.1540   -0.8420    1.8130 O   0  0
   -1.5120   -2.4490    1.6130 O   0  0
   -0.9390    2.0760    1.8870 O   0  0
   -0.8100   -0.2420    1.7990 N   0  0
    4.3030   -0.4440   -1.0740 C   0  0
    3.1900   -1.3190   -0.5210 C   0  0  3  0  0  0
    2.9470   -0.4750   -1.7600 C   0  0  3  0  0  0
    2.5180   -0.9650    0.7930 C   0  0
    2.0290    0.7320   -1.6950 C   0  0
   -2.9020    0.7130    1.5960 C   0  0
   -3.0700   -0.6150    1.5100 C   0  0
   -1.4770    0.9980    1.7750 C   0  0
   -1.7640   -1.2660    1.6390 C   0  0
    4.7010    0.8100   -0.2970 C   0  0
    5.4590   -1.1430   -1.7770 C   0  0
    0.6270   -0.4340    1.9610 C   0  0
    0.7340    0.6110   -2.0350 C   0  0
   -4.0310    1.7130    1.5160 C   0  0
   -4.4080   -1.2850    1.3110 C   0  0
   -5.3220    1.0680    0.9790 C   0  0
   -5.5700   -0.3170    1.6020 C   0  0
   -0.1430    1.8320   -1.9670 C   0  0
    0.2290   -0.7380   -2.4650 C   0  0
    3.2910   -2.3910   -0.6910 H   0  0
    2.8970   -1.0200   -2.7010 H   0  0
    2.4790    1.6600   -1.3710 H   0  0
    3.8650    1.2190    0.2710 H   0  0
    5.0550    1.5880   -0.9750 H   0  0
    5.5040    0.5900    0.4040 H   0  0
    5.1270   -2.0290   -2.3180 H   0  0
    6.2170   -1.4530   -1.0590 H   0  0
    5.9340   -0.4730   -2.4960 H   0  0
    1.0860    0.5020    2.2810 H   0  0
    0.8090   -1.2400    2.6740 H   0  0
   -3.7380    2.5570    0.8910 H   0  0
   -4.2110    2.1110    2.5160 H   0  0
   -4.4800   -2.1680    1.9490 H   0  0
   -4.4730   -1.6350    0.2810 H   0  0
   -5.2500    0.9610   -0.1050 H   0  0
   -6.1720    1.7260    1.1660 H   0  0
   -5.6880   -0.2050    2.6800 H   0  0
   -6.5060   -0.7360    1.2340 H   0  0
    0.3870    2.7620   -2.1780 H   0  0
   -0.5840    1.9180   -0.9750 H   0  0
   -0.9570    1.7440   -2.6880 H   0  0
    0.5430   -0.9440   -3.4880 H   0  0
    0.5840   -1.5040   -1.7750 H   0  0
   -0.8610   -0.7500   -2.4430 H   0  0
  1  9  1  0
  1 17  1  0
  2  9  2  0
  3 14  2  0
  4 13  2  0
  5 13  1  0
  5 14  1  0
  5 17  1  0
  6  7  1  0
  6  8  1  0
  6 15  1  0
  6 16  1  0
  7  8  1  0
  7  9  1  0
  8 10  1  0
 10 18  2  0
 11 12  2  0
 11 13  1  0
 11 19  1  0
 12 14  1  0
 12 20  1  0
 18 23  1  0
 18 24  1  0
 19 21  1  0
 20 22  1  0
 21 22  1  0
  7 25  1  0
  8 26  1  0
 10 27  1  0
 15 28  1  0
 15 29  1  0
 15 30  1  0
 16 31  1  0
 16 32  1  0
 16 33  1  0
 17 34  1  0
 17 35  1  0
 19 36  1  0
 19 37  1  0
 20 38  1  0
 20 39  1  0
 21 40  1  0
 21 41  1  0
 22 42  1  0
 22 43  1  0
 23 44  1  0
 23 45  1  0
 23 46  1  0
 24 47  1  0
 24 48  1  0
 24 49  1  0
M  END
> <Name>
83,975

> <OBJECTID>
9223372273081319435

> <ActiveAidCount>
27

> <AtomChiralCount>
2

> <AtomChiralDefCount>
0

> <AtomChiralUndefCount>
2

> <BondChiralCount>
0

> <BondChiralDefCount>
0

> <BondChiralUndefCount>
0

> <CID>
83975

> <CanonicalSmiles>
CC(=CC1C(C1(C)C)C(=O)OCN2C(=O)C3=C(C2=O)CCCC3)C

> <Complexity>
639

> <CovalentUnitCount>
1

> <CreateDate>
2005/03/27 00:00

> <HeavyAtomCount>
24

> <HydrogenBondAcceptorCount>
4

> <HydrogenBondDonorCount>
0

> <IUPACName>
(1,3-dioxo-4,5,6,7-tetrahydroisoindol-2-yl)methyl 2,2-dimethyl-3-(2-methylprop-1-enyl)cyclopropane-1-carboxylate

> <InChI>
InChI=1S/C19H25NO4/c1-11(2)9-14-15(19(14,3)4)18(23)24-10-20-16(21)12-7-5-6-8-13(12)17(20)22/h9,14-15H,5-8,10H2,1-4H3

> <InChIKey>
CXBMCYHAMVGWJQ-UHFFFAOYSA-N

> <IsomericSmiles>
CC(=CC1C(C1(C)C)C(=O)OCN2C(=O)C3=C(C2=O)CCCC3)C

> <IsotopeAtomCount>
0

> <MeSHHeading>
tetramethrin

> <MeSHTerm>
neopinamine
neopynamin
2,2-dimethyl-3-(2-methylpropenyl)cyclopropanecarboxylic acid, ester with N-(hydroxymethyl)-1-cyclo hexene 1,2-dicarboximide
tetramethrin

> <MolecularFormula>
C19H25NO4

> <MolecularWeight>
331.4

> <PharmAction>
Agrochemicals
Insecticides
Chemical Actions and Uses
Pesticides
Specialty Uses of Chemicals
Toxic Actions

> <RotatableBondCount>
5

> <Smiles>
O(CN1C(C(CCCC2)=C2C1=O)=O)C(C3C(\C=C(/C)\C)C3(C)C)=O

> <SourceCategory>
Legacy Depositors
Chemical Vendors
Curation Efforts
Governmental Organizations
NIH Initiatives
Subscription Services
Research and Development
Journal Publishers

> <Synonym>
Tetramethrin
7696-12-0
Phthalthrin
Neo-pynamin
Neopinamin
Neopinamine
Bioneopynamin
Insectol
Neopynamin forte
Py-Kill
Tetramethrin [INN]
FMC-9260
SP-1103
Tetramethrine
Tetralate
d-Phthalthrin
Weo-Pynamin
CHEBI:39397
Cyclohexene-1-dicarboximidomethylchrysanthemate
Tetramethrin,racemic
Tetramethrin (INN)
Cyclopropanecarboxylic acid, 2,2-dimethyl-3-(2-methyl-1-propenyl)-, (1,3,4,5,6,7-hexahydro-1,3-dioxo-2H-isoindol-2-yl)methyl ester
Niagara nia-9260
Caswell No. 844
N-(Chrysanthemoxymethyl)-1-cyclohexene-1,2-dicarboximide
NCGC00168352-01
Sumitomo SP-1103
Tetramethrine [French]
Tetramethrinum [Latin]
Tetrametrina [Spanish]
SP 1103 forte
N-(3,4,5,6-Tetrahydrophthalimide)methyl-cis,trans-chrysanthemate
Tetramethrine [ISO-French]
DSSTox_CID_12649
DSSTox_RID_79025
DSSTox_GSID_32649
(1,3-dioxo-4,5,6,7-tetrahydroisoindol-2-yl)methyl 2,2-dimethyl-3-(2-methylprop-1-enyl)cyclopropane-1-carboxylate
CCRIS 3284
HSDB 6738
Tetramethrinum
Tetrametrina
NIA-9260
EINECS 231-711-6
ENT 27339
EPA Pesticide Chemical Code 069003
(1,3-dioxo-1,3,4,5,6,7-hexahydro-2H-isoindol-2-yl)methyl 2,2-dimethyl-3-(2-methylprop-1-en-1-yl)cyclopropanecarboxylate
CAS-7696-12-0
AI3-27339
2,3,4,5-Tetrahydrophthalimidomethylchrysanthemate
(1-Cyclohexane-1,2-dicarboximido)methyl chrysanthemumate
3,4,5,6-Tetrahydrophthalimidomethyl (+-)-cis-trans-chrysanthemate
Cyclohex-1-ene-1,2-dicarboximidomethyl (+-)-cis-trans-chrysanthemate
N-(3,4,5,6-Tetrahydrophthalimido)-methyl dl-cis-trans-chrysanthemate
3,4,5,6-Tetrahydro-phthalimidomethylester der dl-cis-trans-chrysanthemumsaeure [German]
3,4,5,6-Tetrahydrophthalimidomethyl cis and trans dl chrysanthemummonocarboxylic acid
(1,3,4,5,6,7-Hexahydro-1,3-dioxo-2H-isoindol-2-yl) methyl 2,2-dimethyl-3-(2-methyl-1-propenyl)cyclopropanecarboxylate
1-(Cyclohexene-1,2-dicarboximido)methyl 2,2-dimethyl-3-(2-methylpropenyl)cyclopropanecarboxylate
1-Cyclohexene-1,2-dicarboximidomethyl-2,2-dimethyl-3-(2-methylpropenyl)cyclopropane carboxylate
2,2-Dimethyl-3-(2-methyl-1-propenyl)cyclopropanecarboxylic acid (1,3,4,5,6,7-hexahydro-1,3-dioxo-2H-isoindol-2-yl)methyl ester
2,2-Dimethyl-3-(2-methylpropenyl)cyclopropanecarboxylic acid ester withN-(hydroxymethyl)-1-cyclohexene-1,2-dicarboximide
Cyclohex-1-ene-1,2-dicarboximidomethyl (1RS)-cis,trans-2,2-dimethyl-3-(2-methyl-prop-1-enyl)cyclopropane carboxylate
Killgerm py-kill w
Tetramethrin racemic
Maybridge1_001977
Rich-D-T-tetramethrin TC
AC1L36JS
Oprea1_283726
SCHEMBL27009
MLS004712089
CHEMBL1788386
DTXSID6032649
CTK8E9800
HMS547B19
Tetramethrin, analytical standard
CXBMCYHAMVGWJQ-UHFFFAOYSA-N
(1-Cyclohexene-1,2-dicarboximido)methyl-2,2-dimethyl-3-(2-methylpropenyl)cyclopropanecarboxylate
2,2-Dimethyl-3-(2-methylpropenyl)cyclopropanecarboxylic acid, ester with N-(hydroxymethyl)-1-cyclohexene-1,2-dicarboximide or 1-cyclohexene-1,2-dicarboximidomethyl 2,2-dimethyl-3-(2-methylpropenyl)cyc
lopropanecarboxylate
Tetramethrin [INN:ANSI:BSI:ISO]
Tox21_112623
Tox21_301017
CCG-51764
KM1812
MFCD00084635
3,4,5,6-Tetrahydro-phthalimidomethylester der dl-cis-trans-chrysanthemumsaeure
AKOS015965024
Tox21_112623_1
KS-5080
NCGC00168352-02
NCGC00254919-01
66525-27-7
LS-96127
M948
SC-15962
SC-26596
SMR001825216
Tetramethrin 10 microg/mL in Cyclohexane
AB0015465
Tetramethrin 100 microg/mL in Acetonitrile
TR-037756
C18373
D07368
Tetramethrin (Mixture of Cis and Trans Isomers)
Tetramethrin, PESTANAL(R), analytical standard
696T120
A838917
SR-01000641045-1
W-104333
(1-Cyclohexene-1,2-dicarboximido)methyl chrysanthemate
(1-Cyclohexene-1,2-dicarboximido)methyl chrysanthemumate
3,4,5,6-Tetrahydrophthalimidomethyl (+/-)-cis-trans-chrysanthemate
(1,3-Dioxo-1,3,4,5,6,7-hexahydro-2H-isoindol-2-yl)methyl 2,2-dimethyl-3-(2-methyl-1-propenyl)cyclopropanecarboxylate #
(1,3-dioxo-4,5,6,7-tetrahydro-1H-isoindol-2(3H)-yl)methyl 2,2-dimethyl-3-(2-methylprop-1-enyl)cyclopropanecarboxylate
(1,3-dioxo-4,5,6,7-tetrahydroisoindol-2-yl)methyl 2,2-dimethyl-3-(2-methylprop-1-enyl)cyclopropanecarboxylate
[1,3-bis(oxidanylidene)-4,5,6,7-tetrahydroisoindol-2-yl]methyl 2,2-dimethyl-3-(2-methylprop-1-enyl)cyclopropane-1-carboxylate
2,2-dimethyl-3-(2-methylprop-1-enyl)-1-cyclopropanecarboxylic acid (1,3-dioxo-4,5,6,7-tetrahydroisoindol-2-yl)methyl ester
Cyclopropanecarboxylic acid, 2,2-dimethyl-3-(2-methylpropenyl)-, ester with N-(hydroxymethyl)-1-cyclohexene-1,2-dicarboximide
Cyclopropanecarboxylic acid,2,2-dimethyl-3-(2-methyl-1-propenyl)-,(1,3,4,5,6,7-hexahydro-1,3-dioxo-2H-isoindol-2-yl)methyl ester

> <TPSA>
63.7

> <TotalAidCount>
319

> <TotalFormalCharge>
0

> <XLogP>
4.7

> <database>
PubChem Compound

> <matchingCount>
176

> <primaryID>
83975

> <queryTranslation>
7628[CompoundID] OR 244[CompoundID] OR 25059[CompoundID] OR 7618[CompoundID] OR 7641[CompoundID] OR 5053[CompoundID] OR 637511[CompoundID] OR 7714[CompoundID] OR 7762[CompoundID] OR 25429[CompoundID]
OR 8842[CompoundID] OR 7794[CompoundID] OR 637566[CompoundID] OR 7843[CompoundID] OR 174[CompoundID] OR 7870[CompoundID] OR 86102[CompoundID] OR 7888[CompoundID] OR 7896[CompoundID] OR 1140[CompoundID
] OR 8042[CompoundID] OR 8058[CompoundID] OR 8078[CompoundID] OR 8087[CompoundID] OR 8117[CompoundID] OR 8133[CompoundID] OR 115224[CompoundID] OR 8175[CompoundID] OR 8194[CompoundID] OR 445639[Compou
ndID] OR 4944[CompoundID] OR 8294[CompoundID] OR 93541[CompoundID] OR 8360[CompoundID] OR 8363[CompoundID] OR 656612[CompoundID] OR 125098[CompoundID] OR 3352[CompoundID] OR 3303913[CompoundID] OR 648
05[CompoundID] OR 31200[CompoundID] OR 1712058[CompoundID] OR 31236[CompoundID] OR 31239[CompoundID] OR 31265[CompoundID] OR 31266[CompoundID] OR 31276[CompoundID] OR 6950273[CompoundID] OR 518659[Com
poundID] OR 14896[CompoundID] OR 14798[CompoundID] OR 14829[CompoundID] OR 14830[CompoundID] OR 8635[CompoundID] OR 23266[CompoundID] OR 4284[CompoundID] OR 8693[CompoundID] OR 22311[CompoundID] OR 87
59[CompoundID] OR 8785[CompoundID] OR 2723810[CompoundID] OR 8857[CompoundID] OR 3893[CompoundID] OR 9936739[CompoundID] OR 516892[CompoundID] OR 5430[CompoundID] OR 9017[CompoundID] OR 15433[Compound
ID] OR 107720[CompoundID] OR 9552081[CompoundID] OR 164825[CompoundID] OR 10275455[CompoundID] OR 16666[CompoundID] OR 9839306[CompoundID] OR 5282227[CompoundID] OR 23676745[CompoundID] OR 32881[Compo
undID] OR 91581[CompoundID] OR 39800[CompoundID] OR 33344[CompoundID] OR 15962220[CompoundID] OR 33528[CompoundID] OR 5365075[CompoundID] OR 62829[CompoundID] OR 162381[CompoundID] OR 517202[CompoundI
D] OR 6433353[CompoundID] OR 2730[CompoundID] OR 5372405[CompoundID] OR 36081[CompoundID] OR 3120[CompoundID] OR 3017[CompoundID] OR 2969[CompoundID] OR 18827[CompoundID] OR 19518[CompoundID] OR 19658
[CompoundID] OR 38283[CompoundID] OR 2758[CompoundID] OR 10112[CompoundID] OR 10340[CompoundID] OR 712[CompoundID] OR 5794[CompoundID] OR 3347[CompoundID] OR 104150[CompoundID] OR 2912[CompoundID] OR
2450[CompoundID] OR 40326[CompoundID] OR 40585[CompoundID] OR 517055[CompoundID] OR 10913[CompoundID] OR 108242[CompoundID] OR 62097[CompoundID] OR 41679[CompoundID] OR 54680676[CompoundID] OR 62118[C
ompoundID] OR 753[CompoundID] OR 1030[CompoundID] OR 23673837[CompoundID] OR 54678504[CompoundID] OR 11442[CompoundID] OR 11463[CompoundID] OR 22230[CompoundID] OR 440917[CompoundID] OR 6054[CompoundI
D] OR 43234[CompoundID] OR 22629[CompoundID] OR 3039[CompoundID] OR 2735067[CompoundID] OR 6144[CompoundID] OR 702[CompoundID] OR 284[CompoundID] OR 176[CompoundID] OR 91688[CompoundID] OR 22947[Compo
undID] OR 47445[CompoundID] OR 1711973[CompoundID] OR 243[CompoundID] OR 10342051[CompoundID] OR 5281875[CompoundID] OR 3776[CompoundID] OR 6224[CompoundID] OR 104926[CompoundID] OR 8755[CompoundID] O
R 338[CompoundID] OR 123622[CompoundID] OR 23954[CompoundID] OR 6334[CompoundID] OR 2537[CompoundID] OR 24261[CompoundID] OR 23665760[CompoundID] OR 83975[CompoundID] OR 784[CompoundID] OR 24437[Compo
undID] OR 5360315[CompoundID] OR 311[CompoundID] OR 6549[CompoundID] OR 107689[CompoundID] OR 17100[CompoundID] OR 24976875[CompoundID] OR 6654[CompoundID] OR 71245[CompoundID] OR 6442842[CompoundID]
OR 62334[CompoundID] OR 54698175[CompoundID] OR 6328154[CompoundID] OR 24762[CompoundID] OR 440950[CompoundID] OR 7017[CompoundID] OR 5281873[CompoundID] OR 323[CompoundID] OR 5281167[CompoundID] OR 7
175[CompoundID] OR 7292[CompoundID] OR 6335613[CompoundID] OR 7456[CompoundID] OR 7462[CompoundID]

> <resultIndex>
55

> <resultRange>
1-176

> <textQuery>
7628,244,25059,7618,7641,5053,637511,7714,7762,25429,8842,7794,637566,7843,174,7870,86102,7888,7896,1140,8042,8058,8078,8087,8117,8133,115224,8175,8194,445639,4944,8294,93541,8360,8363,656612,125098,3
352,3303913,64805,31200,1712058,31236,31239,31265,31266,31276,6950273,518659,14896,14798,14829,14830,8635,23266,4284,8693,22311,8759,8785,2723810,8857,3893,9936739,516892,5430,9017,15433,107720,955208
1,164825,10275455,16666,9839306,5282227,23676745,32881,91581,39800,33344,15962220,33528,5365075,62829,162381,517202,6433353,2730,5372405,36081,3120,3017,2969,18827,19518,19658,38283,2758,10112,10340,7
12,5794,3347,104150,2912,2450,40326,40585,517055,10913,108242,62097,41679,54680676,62118,753,1030,23673837,54678504,11442,11463,22230,440917,6054,43234,22629,3039,2735067,6144,702,284,176,91688,22947,
47445,1711973,243,10342051,5281875,3776,6224,104926,8755,338,123622,23954,6334,2537,24261,23665760,83975,784,24437,5360315,311,6549,107689,17100,24976875,6654,71245,6442842,62334,54698175,6328154,2476
2,440950,7017,5281873,323,5281167,7175,7292,6335613,7456,7462

$$$$
71,245
  SciTegic10191915303D

 56 58  0  0  0  0            999 V2000
    7.4640    5.1230    2.2140 C   0  0
    6.6030    4.0750    1.5080 C   0  0
    5.6190    3.5870    2.4080 O   0  0
    4.7800    2.6700    1.9690 C   0  0
    3.7880    2.1540    2.8210 C   0  0
    2.8930    1.1760    2.3540 C   0  0
    2.9870    0.7110    1.0310 C   0  0
    3.9790    1.2250    0.1760 C   0  0
    4.8730    2.2030    0.6450 C   0  0
    2.0410   -0.3220    0.5360 C   0  0
    1.0430    0.6950   -0.0180 C   0  0
   -0.0480   -0.0110   -0.5650 O   0  0
   -1.0400    0.8320   -1.1060 C   0  0
   -2.1640    0.0080   -1.6220 C   0  0
   -2.0410   -0.6550   -2.8560 C   0  0
   -3.1040   -1.4340   -3.3430 C   0  0
   -4.2900   -1.5510   -2.5970 C   0  0
   -4.4160   -0.8900   -1.3630 C   0  0
   -3.3510   -0.1110   -0.8770 C   0  0
   -5.5280   -1.0010   -0.6650 O   0  0
   -6.1450   -2.1650   -0.6650 C   0  0
   -7.5500   -2.2200   -0.6650 C   0  0
   -8.2090   -3.4620   -0.6650 C   0  0
   -7.4630   -4.6520   -0.6650 C   0  0
   -6.0590   -4.6010   -0.6650 C   0  0
   -5.4010   -3.3590   -0.6650 C   0  0
    1.4640   -1.1520    1.6830 C   0  0
    2.6720   -1.1850   -0.5580 C   0  0
    8.2340    5.5050    1.5440 H   0  0
    6.8520    5.9540    2.5640 H   0  0
    7.9640    4.6900    3.0810 H   0  0
    7.2120    3.2340    1.1780 H   0  0
    6.0930    4.5120    0.6490 H   0  0
    3.7110    2.5080    3.8380 H   0  0
    2.1330    0.7850    3.0160 H   0  0
    4.0570    0.8720   -0.8420 H   0  0
    5.6330    2.5950   -0.0150 H   0  0
    1.4960    1.2870   -0.8120 H   0  0
    0.6660    1.3370    0.7780 H   0  0
   -0.5960    1.3960   -1.9260 H   0  0
   -1.4030    1.4830   -0.3100 H   0  0
   -1.1320   -0.5680   -3.4330 H   0  0
   -3.0100   -1.9430   -4.2910 H   0  0
   -5.1050   -2.1510   -2.9740 H   0  0
   -3.4470    0.3980    0.0710 H   0  0
   -8.1270   -1.3070   -0.6650 H   0  0
   -9.2890   -3.5000   -0.6650 H   0  0
   -7.9690   -5.6070   -0.6650 H   0  0
   -5.4850   -5.5160   -0.6650 H   0  0
   -4.3220   -3.3230   -0.6650 H   0  0
    2.2440   -1.5230    2.3480 H   0  0
    0.9170   -2.0130    1.2980 H   0  0
    0.7720   -0.5570    2.2780 H   0  0
    2.7920   -0.6350   -1.4910 H   0  0
    2.0540   -2.0590   -0.7630 H   0  0
    3.6560   -1.5380   -0.2510 H   0  0
  1  2  1  0
  2  3  1  0
  3  4  1  0
  4  5  2  0
  4  9  1  0
  5  6  1  0
  6  7  2  0
  7  8  1  0
  7 10  1  0
  8  9  2  0
 10 11  1  0
 10 27  1  0
 10 28  1  0
 11 12  1  0
 12 13  1  0
 13 14  1  0
 14 15  2  0
 14 19  1  0
 15 16  1  0
 16 17  2  0
 17 18  1  0
 18 19  2  0
 18 20  1  0
 20 21  1  0
 21 22  2  0
 21 26  1  0
 22 23  1  0
 23 24  2  0
 24 25  1  0
 25 26  2  0
  1 29  1  0
  1 30  1  0
  1 31  1  0
  2 32  1  0
  2 33  1  0
  5 34  1  0
  6 35  1  0
  8 36  1  0
  9 37  1  0
 11 38  1  0
 11 39  1  0
 13 40  1  0
 13 41  1  0
 15 42  1  0
 16 43  1  0
 17 44  1  0
 19 45  1  0
 22 46  1  0
 23 47  1  0
 24 48  1  0
 25 49  1  0
 26 50  1  0
 27 51  1  0
 27 52  1  0
 27 53  1  0
 28 54  1  0
 28 55  1  0
 28 56  1  0
M  END
> <Name>
71,245

> <OBJECTID>
9223372277376286731

> <ActiveAidCount>
8

> <AtomChiralCount>
0

> <AtomChiralDefCount>
0

> <AtomChiralUndefCount>
0

> <BondChiralCount>
0

> <BondChiralDefCount>
0

> <BondChiralUndefCount>
0

> <CID>
71245

> <CanonicalSmiles>
CCOC1=CC=C(C=C1)C(C)(C)COCC2=CC(=CC=C2)OC3=CC=CC=C3

> <Complexity>
422

> <CovalentUnitCount>
1

> <CreateDate>
2005/08/08 00:00

> <HeavyAtomCount>
28

> <HydrogenBondAcceptorCount>
3

> <HydrogenBondDonorCount>
0

> <IUPACName>
1-ethoxy-4-[2-methyl-1-[(3-phenoxyphenyl)methoxy]propan-2-yl]benzene

> <InChI>
InChI=1S/C25H28O3/c1-4-27-22-15-13-21(14-16-22)25(2,3)19-26-18-20-9-8-12-24(17-20)28-23-10-6-5-7-11-23/h5-17H,4,18-19H2,1-3H3

> <InChIKey>
YREQHYQNNWYQCJ-UHFFFAOYSA-N

> <IsomericSmiles>
CCOC1=CC=C(C=C1)C(C)(C)COCC2=CC(=CC=C2)OC3=CC=CC=C3

> <IsotopeAtomCount>
0

> <MeSHHeading>
ethofenprox

> <MeSHTerm>
2-(4-ethoxyphenyl)-2-methylpropyl-3-phenoxybenzyl ether
Trebon
etofenprox
ethofenprox

> <MolecularFormula>
C25H28O3

> <MolecularWeight>
376.5

> <RotatableBondCount>
9

> <Smiles>
CCOc1ccc(C(C)(C)COCc2cc(Oc3ccccc3)ccc2)cc1

> <SourceCategory>
Chemical Vendors
Legacy Depositors
Research and Development
Curation Efforts
Governmental Organizations
NIH Initiatives
Subscription Services
Journal Publishers

> <Synonym>
Etofenprox
Ethofenprox
80844-07-1
1-((2-(4-Ethoxyphenyl)-2-methylpropoxy)methyl)-3-phenoxybenzene
Ethophenprox
Trebon
Etofenprox [INN]
Etofenproxum [Latin]
UNII-0LD7P9153C
MTI 500
2-(4-Ethoxyphenyl)-2-methylpropyl 3-phenoxybenzyl ether
BRN 7047812
3-Phenoxybenzyl 2-(4-ethoxyphenyl)-2-methylpropyl ether
CHEBI:39348
YREQHYQNNWYQCJ-UHFFFAOYSA-N
0LD7P9153C
Benzene, 1-((2-(4-ethoxyphenyl)-2-methylpropoxy)methyl)-3-phenoxy-
Etofenprox (INN)
AK-93029
1-((2-(4-Ethoxyphenyl)-2-methylpropoxy)methyl)-3-phenoxy benzene
1-ethoxy-4-[2-methyl-1-[(3-phenoxyphenyl)methoxy]propan-2-yl]benzene
Etofenproxum
1-{[2-(4-ethoxyphenyl)-2-methylpropoxy]methyl}-3-phenoxybenzene
alpha-((p-Ethoxy-beta,beta-dimethylphenethyl)oxy)-m-phenoxytoluene
1-ethoxy-4-{2-methyl-1-[(3-phenoxyphenyl)methoxy]propan-2-yl}benzene
AC1L2FTK
EC 407-980-2
AC1Q57IO
DSSTox_CID_12610
DSSTox_RID_79002
DSSTox_GSID_32610
SCHEMBL27691
MLS004774036
a-((p-ethoxy-b,b-dimethylphenethyl)oxy)-m-phenoxytoluene
CHEMBL2105573
DTXSID9032610
CTK8C4727
KS-00000IL4
ZINC2558051
Tox21_300378
ANW-72928
MFCD00210287
AKOS015896468
API0007140
DS-2089
Etofenprox 10 microg/mL in Cyclohexane
Etofenprox 10 microg/mL in Acetonitrile
NCGC00163891-01
NCGC00163891-02
NCGC00254410-01
AC-12690
AJ-40094
AN-36361
CC-28326
CJ-09438
Etofenprox 100 microg/mL in Acetonitrile
K439
LS-30339
SMR000855767
AB0014221
AX8017240
CAS-80844-07-1
TR-031815
FT-0630883
ST24026797
Etofenprox, PESTANAL(R), analytical standard
C18410
D09202
M-8604
26892-EP2275422A1
26892-EP2280009A1
26892-EP2305658A1
26892-EP2308857A1
26892-EP2314583A1
31371-EP2274983A1
31371-EP2292608A1
31371-EP2308858A1
31371-EP2311816A1
31371-EP2311817A1
844E071
A841298
SR-01000883714
I06-1919
SR-01000883714-1
3-Phenoxybenzyl-2-(4-ethoxyphenyl)-2-methylpropyl ether
.alpha.-[(p-Ethoxy-.beta.,.beta.-dimethylphenethyl)oxy]-m-phenoxytoluene
1-[1,1-dimethyl-2-[(3-phenoxyphenyl)methoxy]ethyl]-4-ethoxy-benzene

> <TPSA>
27.7

> <TotalAidCount>
296

> <TotalFormalCharge>
0

> <XLogP>
7

> <database>
PubChem Compound

> <matchingCount>
176

> <primaryID>
71245

> <queryTranslation>
7628[CompoundID] OR 244[CompoundID] OR 25059[CompoundID] OR 7618[CompoundID] OR 7641[CompoundID] OR 5053[CompoundID] OR 637511[CompoundID] OR 7714[CompoundID] OR 7762[CompoundID] OR 25429[CompoundID]
OR 8842[CompoundID] OR 7794[CompoundID] OR 637566[CompoundID] OR 7843[CompoundID] OR 174[CompoundID] OR 7870[CompoundID] OR 86102[CompoundID] OR 7888[CompoundID] OR 7896[CompoundID] OR 1140[CompoundID
] OR 8042[CompoundID] OR 8058[CompoundID] OR 8078[CompoundID] OR 8087[CompoundID] OR 8117[CompoundID] OR 8133[CompoundID] OR 115224[CompoundID] OR 8175[CompoundID] OR 8194[CompoundID] OR 445639[Compou
ndID] OR 4944[CompoundID] OR 8294[CompoundID] OR 93541[CompoundID] OR 8360[CompoundID] OR 8363[CompoundID] OR 656612[CompoundID] OR 125098[CompoundID] OR 3352[CompoundID] OR 3303913[CompoundID] OR 648
05[CompoundID] OR 31200[CompoundID] OR 1712058[CompoundID] OR 31236[CompoundID] OR 31239[CompoundID] OR 31265[CompoundID] OR 31266[CompoundID] OR 31276[CompoundID] OR 6950273[CompoundID] OR 518659[Com
poundID] OR 14896[CompoundID] OR 14798[CompoundID] OR 14829[CompoundID] OR 14830[CompoundID] OR 8635[CompoundID] OR 23266[CompoundID] OR 4284[CompoundID] OR 8693[CompoundID] OR 22311[CompoundID] OR 87
59[CompoundID] OR 8785[CompoundID] OR 2723810[CompoundID] OR 8857[CompoundID] OR 3893[CompoundID] OR 9936739[CompoundID] OR 516892[CompoundID] OR 5430[CompoundID] OR 9017[CompoundID] OR 15433[Compound
ID] OR 107720[CompoundID] OR 9552081[CompoundID] OR 164825[CompoundID] OR 10275455[CompoundID] OR 16666[CompoundID] OR 9839306[CompoundID] OR 5282227[CompoundID] OR 23676745[CompoundID] OR 32881[Compo
undID] OR 91581[CompoundID] OR 39800[CompoundID] OR 33344[CompoundID] OR 15962220[CompoundID] OR 33528[CompoundID] OR 5365075[CompoundID] OR 62829[CompoundID] OR 162381[CompoundID] OR 517202[CompoundI
D] OR 6433353[CompoundID] OR 2730[CompoundID] OR 5372405[CompoundID] OR 36081[CompoundID] OR 3120[CompoundID] OR 3017[CompoundID] OR 2969[CompoundID] OR 18827[CompoundID] OR 19518[CompoundID] OR 19658
[CompoundID] OR 38283[CompoundID] OR 2758[CompoundID] OR 10112[CompoundID] OR 10340[CompoundID] OR 712[CompoundID] OR 5794[CompoundID] OR 3347[CompoundID] OR 104150[CompoundID] OR 2912[CompoundID] OR
2450[CompoundID] OR 40326[CompoundID] OR 40585[CompoundID] OR 517055[CompoundID] OR 10913[CompoundID] OR 108242[CompoundID] OR 62097[CompoundID] OR 41679[CompoundID] OR 54680676[CompoundID] OR 62118[C
ompoundID] OR 753[CompoundID] OR 1030[CompoundID] OR 23673837[CompoundID] OR 54678504[CompoundID] OR 11442[CompoundID] OR 11463[CompoundID] OR 22230[CompoundID] OR 440917[CompoundID] OR 6054[CompoundI
D] OR 43234[CompoundID] OR 22629[CompoundID] OR 3039[CompoundID] OR 2735067[CompoundID] OR 6144[CompoundID] OR 702[CompoundID] OR 284[CompoundID] OR 176[CompoundID] OR 91688[CompoundID] OR 22947[Compo
undID] OR 47445[CompoundID] OR 1711973[CompoundID] OR 243[CompoundID] OR 10342051[CompoundID] OR 5281875[CompoundID] OR 3776[CompoundID] OR 6224[CompoundID] OR 104926[CompoundID] OR 8755[CompoundID] O
R 338[CompoundID] OR 123622[CompoundID] OR 23954[CompoundID] OR 6334[CompoundID] OR 2537[CompoundID] OR 24261[CompoundID] OR 23665760[CompoundID] OR 83975[CompoundID] OR 784[CompoundID] OR 24437[Compo
undID] OR 5360315[CompoundID] OR 311[CompoundID] OR 6549[CompoundID] OR 107689[CompoundID] OR 17100[CompoundID] OR 24976875[CompoundID] OR 6654[CompoundID] OR 71245[CompoundID] OR 6442842[CompoundID]
OR 62334[CompoundID] OR 54698175[CompoundID] OR 6328154[CompoundID] OR 24762[CompoundID] OR 440950[CompoundID] OR 7017[CompoundID] OR 5281873[CompoundID] OR 323[CompoundID] OR 5281167[CompoundID] OR 7
175[CompoundID] OR 7292[CompoundID] OR 6335613[CompoundID] OR 7456[CompoundID] OR 7462[CompoundID]

> <resultIndex>
56

> <resultRange>
1-176

> <textQuery>
7628,244,25059,7618,7641,5053,637511,7714,7762,25429,8842,7794,637566,7843,174,7870,86102,7888,7896,1140,8042,8058,8078,8087,8117,8133,115224,8175,8194,445639,4944,8294,93541,8360,8363,656612,125098,3
352,3303913,64805,31200,1712058,31236,31239,31265,31266,31276,6950273,518659,14896,14798,14829,14830,8635,23266,4284,8693,22311,8759,8785,2723810,8857,3893,9936739,516892,5430,9017,15433,107720,955208
1,164825,10275455,16666,9839306,5282227,23676745,32881,91581,39800,33344,15962220,33528,5365075,62829,162381,517202,6433353,2730,5372405,36081,3120,3017,2969,18827,19518,19658,38283,2758,10112,10340,7
12,5794,3347,104150,2912,2450,40326,40585,517055,10913,108242,62097,41679,54680676,62118,753,1030,23673837,54678504,11442,11463,22230,440917,6054,43234,22629,3039,2735067,6144,702,284,176,91688,22947,
47445,1711973,243,10342051,5281875,3776,6224,104926,8755,338,123622,23954,6334,2537,24261,23665760,83975,784,24437,5360315,311,6549,107689,17100,24976875,6654,71245,6442842,62334,54698175,6328154,2476
2,440950,7017,5281873,323,5281167,7175,7292,6335613,7456,7462

$$$$
64,805
  SciTegic10191915303D

 26 27  0  0  1  0            999 V2000
    3.3670   -0.2700    0.7990 O   0  0
    3.2230    1.9470    1.2640 O   0  0
   -3.7580   -1.9670   -2.0670 O   0  0
   -1.5920   -0.8240    0.3850 C   0  0
   -1.7500   -1.1760   -1.0960 C   0  0  3  0  0  0
   -0.3750   -0.0350    0.6270 C   0  0
    0.8960   -0.6500    0.5720 C   0  0
    2.0840    0.0920    0.8010 C   0  0
   -0.4630    1.3400    0.9160 C   0  0
    1.9940    1.4590    1.0860 C   0  0
   -1.9160    0.0590   -1.9810 C   0  0
    0.7190    2.0760    1.1430 C   0  0
   -2.8280   -2.2010   -1.3300 C   0  0
    4.1860    0.8850    1.0880 C   0  0
   -1.5680   -1.7290    0.9940 H   0  0
   -2.4610   -0.2730    0.7440 H   0  0
   -0.9140   -1.7850   -1.4380 H   0  0
    0.9750   -1.7050    0.3510 H   0  0
   -1.4260    1.8320    0.9630 H   0  0
   -2.0060   -0.2270   -3.0290 H   0  0
   -2.8010    0.6250   -1.6900 H   0  0
   -1.0550    0.7190   -1.8890 H   0  0
    0.6500    3.1310    1.3650 H   0  0
   -2.7620   -3.1560   -0.8320 H   0  0
    4.8360    1.1040    0.2540 H   0  0
    4.7460    0.7300    2.0000 H   0  0
  1  8  1  0
  1 14  1  0
  2 10  1  0
  2 14  1  0
  3 13  2  0
  4  5  1  0
  4  6  1  0
  5 11  1  0
  5 13  1  0
  6  7  2  0
  6  9  1  0
  7  8  1  0
  8 10  2  0
  9 12  2  0
 10 12  1  0
  4 15  1  0
  4 16  1  0
  5 17  1  0
  7 18  1  0
  9 19  1  0
 11 20  1  0
 11 21  1  0
 11 22  1  0
 12 23  1  0
 13 24  1  0
 14 25  1  0
 14 26  1  0
M  END
> <Name>
64,805

> <OBJECTID>
9223372281671254027

> <ActiveAidCount>
1

> <AtomChiralCount>
1

> <AtomChiralDefCount>
0

> <AtomChiralUndefCount>
1

> <BondChiralCount>
0

> <BondChiralDefCount>
0

> <BondChiralUndefCount>
0

> <CID>
64805

> <CanonicalSmiles>
CC(CC1=CC2=C(C=C1)OCO2)C=O

> <Complexity>
205

> <CovalentUnitCount>
1

> <CreateDate>
2005/03/26 00:00

> <HeavyAtomCount>
14

> <HydrogenBondAcceptorCount>
3

> <HydrogenBondDonorCount>
0

> <IUPACName>
3-(1,3-benzodioxol-5-yl)-2-methylpropanal

> <InChI>
InChI=1S/C11H12O3/c1-8(6-12)4-9-2-3-10-11(5-9)14-7-13-10/h2-3,5-6,8H,4,7H2,1H3

> <InChIKey>
BOPPSUHPZARXTH-UHFFFAOYSA-N

> <IsomericSmiles>
CC(CC1=CC2=C(C=C1)OCO2)C=O

> <IsotopeAtomCount>
0

> <MeSHHeading>
alpha-methyl-3,4-methylene-dioxyhydrocinnamic aldehyde

> <MeSHTerm>
MMDHCA cpd
alpha-methyl-3,4-methylene-dioxyhydrocinnamic aldehyde

> <MolecularFormula>
C11H12O3

> <MolecularWeight>
192.21

> <RotatableBondCount>
3

> <Smiles>
O1COc(ccc2CC(C=O)C)c1c2

> <SourceCategory>
Chemical Vendors
Legacy Depositors
Research and Development
Curation Efforts
Governmental Organizations
Subscription Services
Journal Publishers

> <Synonym>
1205-17-0
2-Methyl-3-(3,4-Methylenedioxyphenyl)Propanal
3-(1,3-Benzodioxol-5-yl)-2-methylpropanal
2-Methyl-3-(3,4-methylenedioxyphenyl)propionaldehyde
alpha-Methyl-3,4-methylene-dioxyhydrocinnamic aldehyde
1,3-Benzodioxole-5-propanal, alpha-methyl-
3-(3,4-methylenedioxyphenyl)-2-methylpropanal
EINECS 214-881-6
1,3-Benzodioxole-5-propanal, .alpha.-methyl-
NSC 22282
alpha-Methyl-1,3-benzodioxole-5-propionaldehyde
BOPPSUHPZARXTH-UHFFFAOYSA-N
2-Methyl-3-(3,4-methylenedioxyphenyl)-propanal
3-(3,4-Methylenedioxyphenyl)-2-methyl-propanol
.alpha.-Methyl-3,4-methylenedioxy-hydrocinnamic aldehyde
Q-201188
Heliobouquet
Heliofresh
Helipropanal
Heliogan
Tropional
aquanal
Floramelon
ocean propanal
New heliotropin
heliofresh(r)
2-piperonyl propanal
PubChem15361
1, .alpha.-methyl-
AC1L21YN
AC1Q1QZ3
DSSTox_CID_23908
DSSTox_RID_80086
DSSTox_GSID_43908
SCHEMBL112940
CHEMBL3183457
DTXSID7043908
CTK8B8275
Hydrocinnamaldehyde, .alpha.-methyl-3,4-(methylenedioxy)-
BCP18791
NSC22282
Tox21_301642
ANW-59877
MFCD00067053
NSC-22282
STL300759
2-Methyl-3-(3,4-methylenedioxyphen
AKOS015914177
FCH1113160
MCULE-3424309643
RP25175
Hydrocinnamaldehyde,4-(methylenedioxy)-
KS-0000122F
NCGC00255941-01
AK-32982
alpha-Methyl-1,3-benzodioxole-5-propanal
AN-22352
AS-15348
CC-11330
O978
SC-47153
CAS-1205-17-0
DB-041564
LS-185779
TX-017881
a-methyl-1,3-benzodioxole-5-propionaldehyde
FT-0633484
M2404
ST24028088
ST50825331
3-(1,3-benzodioxol-5-yl)-2-methyl-propanal
2-methyl-3-(3,4-methylenedioxy-phenyl)propanal
3-(1,3-Benzodioxol-5-yl)-2-methylpropanal #
a-Methyl-3,4-(methylenedioxy)hydrocinnamaldehyde
3-(benzo[d][1,3]dioxol-5-yl)-2-methylpropanal
C-24514
2-methyl-3-(3,4-methylenedioxyphenyl) propionaldehyde
3-(2H-benzo[d]1,3-dioxolan-5-yl)-2-methylpropanal
I14-43720
hydrocinnamaldehyde, alpha-methyl-3,4- (methylenedioxy)
Hydrocinnamaldehyde, alpha-methyl-3,4-(methylenedioxy)-
2-Methyl-3-(3,4-methylenedioxyphenyl)-propanal, >=98%
Hydrocinnamaldehyde, alpha-methyl-3,4-(methylenedioxy)- (8CI)

> <TPSA>
35.5

> <TotalAidCount>
212

> <TotalFormalCharge>
0

> <XLogP>
2.2

> <database>
PubChem Compound

> <matchingCount>
176

> <primaryID>
64805

> <queryTranslation>
7628[CompoundID] OR 244[CompoundID] OR 25059[CompoundID] OR 7618[CompoundID] OR 7641[CompoundID] OR 5053[CompoundID] OR 637511[CompoundID] OR 7714[CompoundID] OR 7762[CompoundID] OR 25429[CompoundID]
OR 8842[CompoundID] OR 7794[CompoundID] OR 637566[CompoundID] OR 7843[CompoundID] OR 174[CompoundID] OR 7870[CompoundID] OR 86102[CompoundID] OR 7888[CompoundID] OR 7896[CompoundID] OR 1140[CompoundID
] OR 8042[CompoundID] OR 8058[CompoundID] OR 8078[CompoundID] OR 8087[CompoundID] OR 8117[CompoundID] OR 8133[CompoundID] OR 115224[CompoundID] OR 8175[CompoundID] OR 8194[CompoundID] OR 445639[Compou
ndID] OR 4944[CompoundID] OR 8294[CompoundID] OR 93541[CompoundID] OR 8360[CompoundID] OR 8363[CompoundID] OR 656612[CompoundID] OR 125098[CompoundID] OR 3352[CompoundID] OR 3303913[CompoundID] OR 648
05[CompoundID] OR 31200[CompoundID] OR 1712058[CompoundID] OR 31236[CompoundID] OR 31239[CompoundID] OR 31265[CompoundID] OR 31266[CompoundID] OR 31276[CompoundID] OR 6950273[CompoundID] OR 518659[Com
poundID] OR 14896[CompoundID] OR 14798[CompoundID] OR 14829[CompoundID] OR 14830[CompoundID] OR 8635[CompoundID] OR 23266[CompoundID] OR 4284[CompoundID] OR 8693[CompoundID] OR 22311[CompoundID] OR 87
59[CompoundID] OR 8785[CompoundID] OR 2723810[CompoundID] OR 8857[CompoundID] OR 3893[CompoundID] OR 9936739[CompoundID] OR 516892[CompoundID] OR 5430[CompoundID] OR 9017[CompoundID] OR 15433[Compound
ID] OR 107720[CompoundID] OR 9552081[CompoundID] OR 164825[CompoundID] OR 10275455[CompoundID] OR 16666[CompoundID] OR 9839306[CompoundID] OR 5282227[CompoundID] OR 23676745[CompoundID] OR 32881[Compo
undID] OR 91581[CompoundID] OR 39800[CompoundID] OR 33344[CompoundID] OR 15962220[CompoundID] OR 33528[CompoundID] OR 5365075[CompoundID] OR 62829[CompoundID] OR 162381[CompoundID] OR 517202[CompoundI
D] OR 6433353[CompoundID] OR 2730[CompoundID] OR 5372405[CompoundID] OR 36081[CompoundID] OR 3120[CompoundID] OR 3017[CompoundID] OR 2969[CompoundID] OR 18827[CompoundID] OR 19518[CompoundID] OR 19658
[CompoundID] OR 38283[CompoundID] OR 2758[CompoundID] OR 10112[CompoundID] OR 10340[CompoundID] OR 712[CompoundID] OR 5794[CompoundID] OR 3347[CompoundID] OR 104150[CompoundID] OR 2912[CompoundID] OR
2450[CompoundID] OR 40326[CompoundID] OR 40585[CompoundID] OR 517055[CompoundID] OR 10913[CompoundID] OR 108242[CompoundID] OR 62097[CompoundID] OR 41679[CompoundID] OR 54680676[CompoundID] OR 62118[C
ompoundID] OR 753[CompoundID] OR 1030[CompoundID] OR 23673837[CompoundID] OR 54678504[CompoundID] OR 11442[CompoundID] OR 11463[CompoundID] OR 22230[CompoundID] OR 440917[CompoundID] OR 6054[CompoundI
D] OR 43234[CompoundID] OR 22629[CompoundID] OR 3039[CompoundID] OR 2735067[CompoundID] OR 6144[CompoundID] OR 702[CompoundID] OR 284[CompoundID] OR 176[CompoundID] OR 91688[CompoundID] OR 22947[Compo
undID] OR 47445[CompoundID] OR 1711973[CompoundID] OR 243[CompoundID] OR 10342051[CompoundID] OR 5281875[CompoundID] OR 3776[CompoundID] OR 6224[CompoundID] OR 104926[CompoundID] OR 8755[CompoundID] O
R 338[CompoundID] OR 123622[CompoundID] OR 23954[CompoundID] OR 6334[CompoundID] OR 2537[CompoundID] OR 24261[CompoundID] OR 23665760[CompoundID] OR 83975[CompoundID] OR 784[CompoundID] OR 24437[Compo
undID] OR 5360315[CompoundID] OR 311[CompoundID] OR 6549[CompoundID] OR 107689[CompoundID] OR 17100[CompoundID] OR 24976875[CompoundID] OR 6654[CompoundID] OR 71245[CompoundID] OR 6442842[CompoundID]
OR 62334[CompoundID] OR 54698175[CompoundID] OR 6328154[CompoundID] OR 24762[CompoundID] OR 440950[CompoundID] OR 7017[CompoundID] OR 5281873[CompoundID] OR 323[CompoundID] OR 5281167[CompoundID] OR 7
175[CompoundID] OR 7292[CompoundID] OR 6335613[CompoundID] OR 7456[CompoundID] OR 7462[CompoundID]

> <resultIndex>
57

> <resultRange>
1-176

> <textQuery>
7628,244,25059,7618,7641,5053,637511,7714,7762,25429,8842,7794,637566,7843,174,7870,86102,7888,7896,1140,8042,8058,8078,8087,8117,8133,115224,8175,8194,445639,4944,8294,93541,8360,8363,656612,125098,3
352,3303913,64805,31200,1712058,31236,31239,31265,31266,31276,6950273,518659,14896,14798,14829,14830,8635,23266,4284,8693,22311,8759,8785,2723810,8857,3893,9936739,516892,5430,9017,15433,107720,955208
1,164825,10275455,16666,9839306,5282227,23676745,32881,91581,39800,33344,15962220,33528,5365075,62829,162381,517202,6433353,2730,5372405,36081,3120,3017,2969,18827,19518,19658,38283,2758,10112,10340,7
12,5794,3347,104150,2912,2450,40326,40585,517055,10913,108242,62097,41679,54680676,62118,753,1030,23673837,54678504,11442,11463,22230,440917,6054,43234,22629,3039,2735067,6144,702,284,176,91688,22947,
47445,1711973,243,10342051,5281875,3776,6224,104926,8755,338,123622,23954,6334,2537,24261,23665760,83975,784,24437,5360315,311,6549,107689,17100,24976875,6654,71245,6442842,62334,54698175,6328154,2476
2,440950,7017,5281873,323,5281167,7175,7292,6335613,7456,7462

$$$$
62,829
  SciTegic10191915303D

 48 49  0  0  1  0            999 V2000
   -1.9960   -1.6430   -1.4860 C   0  0
   -1.8570   -2.9570   -1.6930 C   0  0
   -0.6600   -0.9390   -1.4470 C   0  0  2  0  0  0
    0.3830   -2.0570   -1.6660 C   0  0
   -0.4510   -3.3050   -1.8140 C   0  0
    2.1760    1.8790    1.3830 C   0  0  2  0  0  0
    0.8960    1.0920    1.1930 C   0  0  2  0  0  0
    1.9920    0.5510    2.0980 C   0  0
    0.6190    0.4410   -0.1480 C   0  0
    1.7250    0.5530    3.5980 C   0  0
    2.8320   -0.6250    1.6070 C   0  0
   -0.4690   -0.3240   -0.1800 O   0  0
    1.3460    0.6190   -1.1000 O   0  0
   -3.3070   -0.9200   -1.3110 C   0  0
   -0.0140   -4.4160   -2.0040 O   0  0
    2.1370    3.1800    2.1660 C   0  0
    1.5840    4.2970    0.0590 C   0  0
    1.8650    4.3340    1.5350 C   0  0
    1.8550    5.6080    2.3420 C   0  0
   -2.9940   -3.9410   -1.7910 C   0  0
   -3.6600   -3.8500   -3.1390 C   0  0
   -4.4550   -4.8570   -3.5310 C   0  0
   -0.6050   -0.1820   -2.2150 H   0  0
    1.0610   -2.1560   -0.8300 H   0  0
    0.9670   -1.8870   -2.5590 H   0  0
    2.8730    1.8870    0.5450 H   0  0
    0.0060    1.4820    1.6910 H   0  0
    1.0180    1.3320    3.8830 H   0  0
    2.6470    0.7230    4.1540 H   0  0
    1.3140   -0.4040    3.9180 H   0  0
    3.0880   -0.5310    0.5530 H   0  0
    2.2910   -1.5640    1.7360 H   0  0
    3.7620   -0.6950    2.1720 H   0  0
   -4.0610   -1.5060   -0.7870 H   0  0
   -3.7130   -0.6460   -2.2850 H   0  0
   -3.1480    0.0000   -0.7480 H   0  0
    2.3380    3.1080    3.2250 H   0  0
    0.9340    3.4770   -0.2400 H   0  0
    2.5200    4.1990   -0.4940 H   0  0
    1.1110    5.2290   -0.2520 H   0  0
    2.5780    5.5370    3.1540 H   0  0
    2.0630    6.4570    1.6910 H   0  0
    0.8690    5.7580    2.7830 H   0  0
   -3.7230   -3.7440   -1.0040 H   0  0
   -2.6230   -4.9530   -1.6310 H   0  0
   -3.5630   -3.0350   -3.8420 H   0  0
   -4.9940   -4.9340   -4.4630 H   0  0
   -4.5550   -5.6700   -2.8260 H   0  0
  1 14  1  0
  1  2  2  0
  1  3  1  0
  2 20  1  0
  2  5  1  0
  3 12  1  0
  3  4  1  0
  4  5  1  0
  5 15  2  0
  6  7  1  0
  6  8  1  0
  6 16  1  0
  7  9  1  0
  7  8  1  0
  8 10  1  0
  8 11  1  0
  9 12  1  0
  9 13  2  0
 16 18  2  0
 17 18  1  0
 18 19  1  0
 20 21  1  0
 21 22  2  0
  3 23  1  0
  4 24  1  0
  4 25  1  0
  6 26  1  0
  7 27  1  0
 10 28  1  0
 10 29  1  0
 10 30  1  0
 11 31  1  0
 11 32  1  0
 11 33  1  0
 14 34  1  0
 14 35  1  0
 14 36  1  0
 16 37  1  0
 17 38  1  0
 17 39  1  0
 17 40  1  0
 19 41  1  0
 19 42  1  0
 19 43  1  0
 20 44  1  0
 20 45  1  0
 21 46  1  0
 22 47  1  0
 22 48  1  0
M  END
> <Name>
62,829

> <OBJECTID>
9223372285966221323

> <ActiveAidCount>
56

> <AtomChiralCount>
3

> <AtomChiralDefCount>
3

> <AtomChiralUndefCount>
0

> <BondChiralCount>
0

> <BondChiralDefCount>
0

> <BondChiralUndefCount>
0

> <CID>
62829

> <CanonicalSmiles>
CC1=C(C(=O)CC1OC(=O)C2C(C2(C)C)C=C(C)C)CC=C

> <Complexity>
574

> <CovalentUnitCount>
1

> <CreateDate>
2005/07/09 00:00

> <HeavyAtomCount>
22

> <HydrogenBondAcceptorCount>
3

> <HydrogenBondDonorCount>
0

> <IUPACName>
[(1S)-2-methyl-4-oxo-3-prop-2-enylcyclopent-2-en-1-yl] (1R,3R)-2,2-dimethyl-3-(2-methylprop-1-enyl)cyclopropane-1-carboxylate

> <InChI>
InChI=1S/C19H26O3/c1-7-8-13-12(4)16(10-15(13)20)22-18(21)17-14(9-11(2)3)19(17,5)6/h7,9,14,16-17H,1,8,10H2,2-6H3/t14-,16+,17+/m1/s1

> <InChIKey>
ZCVAOQKBXKSDMS-PVAVHDDUSA-N

> <IsomericSmiles>
CC1=C(C(=O)C[C@@H]1OC(=O)[C@@H]2[C@H](C2(C)C)C=C(C)C)CC=C

> <IsotopeAtomCount>
0

> <MeSHHeading>
bioallethrin

> <MeSHTerm>
bioallethrin, (1R-(1alpha(S*),3alpha))-isomer
bioallethrin, (1S-(1alpha(S*),3beta))-isomer
bioallethrin, 3H-labeled
bioallethrin
bioallethrin, (1R-(1alpha(R*),3alpha))-isomer
bioallethrin, (1S-(1alpha(S*),3alpha))-isomer
bioallethrin, (1R-(1alpha(R*),3beta))-isomer
bioallethrin, (1R-(1alpha(S*),2beta))-isomer
S-bioallethrin
bioallethrin, (1S-(1alpha(R*),3alpha))-isomer

> <MolecularFormula>
C19H26O3

> <MolecularWeight>
302.4

> <PharmAction>
Specialty Uses of Chemicals
Pesticides
Chemical Actions and Uses
Insecticides
Agrochemicals
Toxic Actions

> <RotatableBondCount>
6

> <Smiles>
C1(=C(C(=O)C[C@@H]1OC(=O)[C@H]2C(C)(C)[C@@H]2\C=C(\C)/C)CC=C)C

> <SourceCategory>
Legacy Depositors
Chemical Vendors
Curation Efforts
Governmental Organizations
NIH Initiatives
Subscription Services
Research and Development
Journal Publishers

> <Synonym>
Esbiol
S-BIOALLETHRIN
trans-(+)-Allethrin
UNII-GFF4AL7FRM
(+)-trans-(S)-allethrin
bioallethrin S-cyclopentenyl isomer
GFF4AL7FRM
28434-00-6
bioallethrin S-cyclopentenyl
CHEBI:39115
(S)-3-Allyl-3-methyl-4-oxocyclopent-2-enyl (+)-trans-chrysanthemate
Esbiol concentrate 90%
D-TRANS-ALLETHRIN
(1S)-2-methyl-4-oxo-3-(prop-2-en-1-yl)cyclopent-2-en-1-yl (1R,3R)-2,2-dimethyl-3-(2-methylprop-1-en-1-yl)cyclopropanecarboxylate
EINECS 249-013-5
d-Allethrolone d-trans-chrysanthemumate
(+)-trans-Allethrin
BRN 2059862
(1S)-3-allyl-2-methyl-4-oxocyclopent-2-en-1-yl (1R,3R)-2,2-dimethyl-3-(2-methylprop-1-en-1-yl)cyclopropanecarboxylate
[(1S)-2-methyl-4-oxo-3-prop-2-enylcyclopent-2-en-1-yl] (1R,3R)-2,2-dimethyl-3-(2-methylprop-1-enyl)cyclopropane-1-carboxylate
Caswell No. 025A
(S)-Bioallethrin
AC1L1XV4
DSSTox_CID_19336
DSSTox_RID_79434
DSSTox_GSID_39336
4-09-00-00174 (Beilstein Handbook Reference)
SCHEMBL288757
CHEMBL1887350
DTXSID2039336
2,2-Dimethyl-3-(2-methyl-1-propenyl)cyclopropanecarboxylic acid 2-methyl-4-oxo-3-(2-propenyl)-2- cyclopenten-1-yl ester
28057-48-9
3-Allyl-2-methyl-4-oxocyclopent-2-en-1-yl (1R-(1alpha(S*),3beta))-2,2-dimethyl-3-(2-methylprop-1-enyl)cyclopropanecarboxylate
Cyclopropanecarboxylic acid, 2,2-dimethyl-3-(2-methyl-1-propenyl)-, 2-methyl-4-oxo-3-(2-propenyl)-2-cyclopenten-1-yl ester, (1R-(1alpha(S*),3beta))-
ZINC4480365
Tox21_301044
LMPR0102060006
DL-2-Allyl-4-hydroxy-3-methyl-2-cyclopenten-1-one, d-trans-chrysanthemum monocarboxylic ester
NCGC00163816-01
NCGC00168304-01
NCGC00168304-02
NCGC00254946-01
AJ-51174
CAS-28434-00-6
FT-0630540
S-Bioallethrin 100 microg/mL in Acetonitrile
J-017068
UNII-0X03II877M component ZCVAOQKBXKSDMS-PVAVHDDUSA-N
UNII-G79DM7O471 component ZCVAOQKBXKSDMS-PVAVHDDUSA-N
UNII-Y8J603E78R component ZCVAOQKBXKSDMS-PVAVHDDUSA-N
(1S)-2-methyl-4-oxo-3-prop-2-en-1-ylcyclopent-2-en-1-yl (1R,3R)-2,2-dimethyl-3-(2-methylprop-1-en-1-yl)cyclopropanecarboxylate

> <TPSA>
43.4

> <TotalAidCount>
242

> <TotalFormalCharge>
0

> <XLogP>
4.8

> <database>
PubChem Compound

> <matchingCount>
176

> <primaryID>
62829

> <queryTranslation>
7628[CompoundID] OR 244[CompoundID] OR 25059[CompoundID] OR 7618[CompoundID] OR 7641[CompoundID] OR 5053[CompoundID] OR 637511[CompoundID] OR 7714[CompoundID] OR 7762[CompoundID] OR 25429[CompoundID]
OR 8842[CompoundID] OR 7794[CompoundID] OR 637566[CompoundID] OR 7843[CompoundID] OR 174[CompoundID] OR 7870[CompoundID] OR 86102[CompoundID] OR 7888[CompoundID] OR 7896[CompoundID] OR 1140[CompoundID
] OR 8042[CompoundID] OR 8058[CompoundID] OR 8078[CompoundID] OR 8087[CompoundID] OR 8117[CompoundID] OR 8133[CompoundID] OR 115224[CompoundID] OR 8175[CompoundID] OR 8194[CompoundID] OR 445639[Compou
ndID] OR 4944[CompoundID] OR 8294[CompoundID] OR 93541[CompoundID] OR 8360[CompoundID] OR 8363[CompoundID] OR 656612[CompoundID] OR 125098[CompoundID] OR 3352[CompoundID] OR 3303913[CompoundID] OR 648
05[CompoundID] OR 31200[CompoundID] OR 1712058[CompoundID] OR 31236[CompoundID] OR 31239[CompoundID] OR 31265[CompoundID] OR 31266[CompoundID] OR 31276[CompoundID] OR 6950273[CompoundID] OR 518659[Com
poundID] OR 14896[CompoundID] OR 14798[CompoundID] OR 14829[CompoundID] OR 14830[CompoundID] OR 8635[CompoundID] OR 23266[CompoundID] OR 4284[CompoundID] OR 8693[CompoundID] OR 22311[CompoundID] OR 87
59[CompoundID] OR 8785[CompoundID] OR 2723810[CompoundID] OR 8857[CompoundID] OR 3893[CompoundID] OR 9936739[CompoundID] OR 516892[CompoundID] OR 5430[CompoundID] OR 9017[CompoundID] OR 15433[Compound
ID] OR 107720[CompoundID] OR 9552081[CompoundID] OR 164825[CompoundID] OR 10275455[CompoundID] OR 16666[CompoundID] OR 9839306[CompoundID] OR 5282227[CompoundID] OR 23676745[CompoundID] OR 32881[Compo
undID] OR 91581[CompoundID] OR 39800[CompoundID] OR 33344[CompoundID] OR 15962220[CompoundID] OR 33528[CompoundID] OR 5365075[CompoundID] OR 62829[CompoundID] OR 162381[CompoundID] OR 517202[CompoundI
D] OR 6433353[CompoundID] OR 2730[CompoundID] OR 5372405[CompoundID] OR 36081[CompoundID] OR 3120[CompoundID] OR 3017[CompoundID] OR 2969[CompoundID] OR 18827[CompoundID] OR 19518[CompoundID] OR 19658
[CompoundID] OR 38283[CompoundID] OR 2758[CompoundID] OR 10112[CompoundID] OR 10340[CompoundID] OR 712[CompoundID] OR 5794[CompoundID] OR 3347[CompoundID] OR 104150[CompoundID] OR 2912[CompoundID] OR
2450[CompoundID] OR 40326[CompoundID] OR 40585[CompoundID] OR 517055[CompoundID] OR 10913[CompoundID] OR 108242[CompoundID] OR 62097[CompoundID] OR 41679[CompoundID] OR 54680676[CompoundID] OR 62118[C
ompoundID] OR 753[CompoundID] OR 1030[CompoundID] OR 23673837[CompoundID] OR 54678504[CompoundID] OR 11442[CompoundID] OR 11463[CompoundID] OR 22230[CompoundID] OR 440917[CompoundID] OR 6054[CompoundI
D] OR 43234[CompoundID] OR 22629[CompoundID] OR 3039[CompoundID] OR 2735067[CompoundID] OR 6144[CompoundID] OR 702[CompoundID] OR 284[CompoundID] OR 176[CompoundID] OR 91688[CompoundID] OR 22947[Compo
undID] OR 47445[CompoundID] OR 1711973[CompoundID] OR 243[CompoundID] OR 10342051[CompoundID] OR 5281875[CompoundID] OR 3776[CompoundID] OR 6224[CompoundID] OR 104926[CompoundID] OR 8755[CompoundID] O
R 338[CompoundID] OR 123622[CompoundID] OR 23954[CompoundID] OR 6334[CompoundID] OR 2537[CompoundID] OR 24261[CompoundID] OR 23665760[CompoundID] OR 83975[CompoundID] OR 784[CompoundID] OR 24437[Compo
undID] OR 5360315[CompoundID] OR 311[CompoundID] OR 6549[CompoundID] OR 107689[CompoundID] OR 17100[CompoundID] OR 24976875[CompoundID] OR 6654[CompoundID] OR 71245[CompoundID] OR 6442842[CompoundID]
OR 62334[CompoundID] OR 54698175[CompoundID] OR 6328154[CompoundID] OR 24762[CompoundID] OR 440950[CompoundID] OR 7017[CompoundID] OR 5281873[CompoundID] OR 323[CompoundID] OR 5281167[CompoundID] OR 7
175[CompoundID] OR 7292[CompoundID] OR 6335613[CompoundID] OR 7456[CompoundID] OR 7462[CompoundID]

> <resultIndex>
58

> <resultRange>
1-176

> <textQuery>
7628,244,25059,7618,7641,5053,637511,7714,7762,25429,8842,7794,637566,7843,174,7870,86102,7888,7896,1140,8042,8058,8078,8087,8117,8133,115224,8175,8194,445639,4944,8294,93541,8360,8363,656612,125098,3
352,3303913,64805,31200,1712058,31236,31239,31265,31266,31276,6950273,518659,14896,14798,14829,14830,8635,23266,4284,8693,22311,8759,8785,2723810,8857,3893,9936739,516892,5430,9017,15433,107720,955208
1,164825,10275455,16666,9839306,5282227,23676745,32881,91581,39800,33344,15962220,33528,5365075,62829,162381,517202,6433353,2730,5372405,36081,3120,3017,2969,18827,19518,19658,38283,2758,10112,10340,7
12,5794,3347,104150,2912,2450,40326,40585,517055,10913,108242,62097,41679,54680676,62118,753,1030,23673837,54678504,11442,11463,22230,440917,6054,43234,22629,3039,2735067,6144,702,284,176,91688,22947,
47445,1711973,243,10342051,5281875,3776,6224,104926,8755,338,123622,23954,6334,2537,24261,23665760,83975,784,24437,5360315,311,6549,107689,17100,24976875,6654,71245,6442842,62334,54698175,6328154,2476
2,440950,7017,5281873,323,5281167,7175,7292,6335613,7456,7462

$$$$
62,334
  SciTegic10191915303D

 36 36  0  0  1  0            999 V2000
    1.0960   -0.9770   -0.9570 O   0  0
    2.3870   -2.2750    0.3340 O   0  0
   -0.5550    0.4980    0.0040 C   0  0  3  0  0  0
    0.2190    1.7790    0.3260 C   0  0
    0.3180   -0.7620    0.2130 C   0  0  3  0  0  0
   -1.8650    0.4100    0.8030 C   0  0
   -0.5000   -2.0310    0.5200 C   0  0
   -2.7230   -0.8010    0.3810 C   0  0
   -1.8870   -1.9860   -0.1350 C   0  0
   -0.5860    2.5780   -0.6970 C   0  0
    1.7010    1.6800   -0.0370 C   0  0
   -0.0060    2.2600    1.7600 C   0  0
    2.0940   -1.8300   -0.7500 C   0  0
    2.8630   -2.2250   -1.9820 C   0  0
   -0.8340    0.5470   -1.0510 H   0  0
    1.0180   -0.6040    1.0350 H   0  0
   -1.6270    0.3280    1.8630 H   0  0
   -2.4470    1.3260    0.6930 H   0  0
   -0.6310   -2.1270    1.5980 H   0  0
    0.0430   -2.9200    0.2030 H   0  0
   -3.3300   -1.1130    1.2310 H   0  0
   -3.4260   -0.5040   -0.3980 H   0  0
   -1.7600   -1.8980   -1.2130 H   0  0
   -2.4220   -2.9220    0.0350 H   0  0
   -1.6600    2.4380   -0.5700 H   0  0
   -0.3280    2.2750   -1.7130 H   0  0
   -0.3770    3.6450   -0.6050 H   0  0
    2.2440    1.0250    0.6470 H   0  0
    2.1740    2.6620   -0.0040 H   0  0
    1.8260    1.2830   -1.0450 H   0  0
    0.2500    1.4920    2.4900 H   0  0
   -1.0490    2.5330    1.9140 H   0  0
    0.6050    3.1370    1.9730 H   0  0
    3.6580   -2.9220   -1.7170 H   0  0
    2.1880   -2.6540   -2.7210 H   0  0
    3.3280   -1.3460   -2.4280 H   0  0
  1  5  1  0
  1 13  1  0
  2 13  2  0
  3  4  1  0
  3  5  1  0
  3  6  1  0
  4 10  1  0
  4 11  1  0
  4 12  1  0
  5  7  1  0
  6  8  1  0
  7  9  1  0
  8  9  1  0
 13 14  1  0
  3 15  1  0
  5 16  1  0
  6 17  1  0
  6 18  1  0
  7 19  1  0
  7 20  1  0
  8 21  1  0
  8 22  1  0
  9 23  1  0
  9 24  1  0
 10 25  1  0
 10 26  1  0
 10 27  1  0
 11 28  1  0
 11 29  1  0
 11 30  1  0
 12 31  1  0
 12 32  1  0
 12 33  1  0
 14 34  1  0
 14 35  1  0
 14 36  1  0
M  END
> <Name>
62,334

> <OBJECTID>
9223372290261188619

> <ActiveAidCount>
0

> <AtomChiralCount>
2

> <AtomChiralDefCount>
0

> <AtomChiralUndefCount>
2

> <BondChiralCount>
0

> <BondChiralDefCount>
0

> <BondChiralUndefCount>
0

> <CID>
62334

> <CanonicalSmiles>
CC(=O)OC1CCCCC1C(C)(C)C

> <Complexity>
203

> <CovalentUnitCount>
1

> <CreateDate>
2005/03/27 00:00

> <HeavyAtomCount>
14

> <HydrogenBondAcceptorCount>
2

> <HydrogenBondDonorCount>
0

> <IUPACName>
(2-tert-butylcyclohexyl) acetate

> <InChI>
InChI=1S/C12H22O2/c1-9(13)14-11-8-6-5-7-10(11)12(2,3)4/h10-11H,5-8H2,1-4H3

> <InChIKey>
FINOAUDUYKVGDS-UHFFFAOYSA-N

> <IsomericSmiles>
CC(=O)OC1CCCCC1C(C)(C)C

> <IsotopeAtomCount>
0

> <MolecularFormula>
C12H22O2

> <MolecularWeight>
198.3

> <RotatableBondCount>
3

> <Smiles>
O(C(C)=O)C1CCCCC1C(C)(C)C

> <SourceCategory>
Legacy Depositors
Chemical Vendors
Research and Development
Curation Efforts
Governmental Organizations
Subscription Services
Journal Publishers

> <Synonym>
2-tert-Butylcyclohexyl acetate
88-41-5
Grumex
Verdox
2-t-Butylcyclohexyl acetate
o-tert-Butylcyclohexyl acetate
o-t-Butylcyclohexyl acetate
2-tert-Butylcyclohexanol acetate
1-Acetoxy-2-tert-butylcyclohexane
EINECS 201-828-7
2-(1,1-Dimethylethyl)cyclohexanol acetate
(2-tert-butylcyclohexyl) acetate
FINOAUDUYKVGDS-UHFFFAOYSA-N
2-(1,1-Dimethylethyl)cyclohexyl acetate
Cyclohexanol, 2-(1,1-dimethylethyl)-, 1-acetate
Agrumex
green acetate
Cyclohexanol, 2-(1,1-dimethylethyl)-, acetate, (1R,2R)-rel-
Cyclohexanol, 2-(1,1-dimethylethyl)-, 1-acetate, (1R,2R)-rel-
20298-69-5
AC1L1WWW
DSSTox_CID_16105
DSSTox_RID_79272
DSSTox_GSID_36105
SCHEMBL111167
Cyclohexanol, 2-(1,1-dimethylethyl)-, 1-acetate, (1R,2S)-rel-
Cyclohexanol, 2-(1,1-dimethylethyl)-, acetate, (1R,2S)-rel-
2-tert-butyl cyclohexyl acetate
2-tert.-butylcyclohexyl acetate
CHEMBL3185907
DTXSID3036105
CTK8E6319
2-tert-Butylcyclohexyl acetate #
2-tert-butylcyclohexyl acetate 1
2-tert-butylcyclohexyl acetate 2
2-tertiary-butylcyclohexyl acetate
o-tert-Butyl cyclohexyl acetate 1
20298-70-8
Tox21_301404
AKOS015902562
FCH1113030
RTR-027765
CAS-88-41-5
NCGC00255658-01
AN-24144
LS-57148
2-(1,1-dimethylethyl)cyclohexyl ethanoate
TR-027765
FT-0613420
C-09252
o-tert-Butylcyclohexyl acetate, mixture of isomers
I14-19947
o-tert-Butylcyclohexyl acetate, mixture of isomers, >=99%

> <TPSA>
26.3

> <TotalAidCount>
210

> <TotalFormalCharge>
0

> <XLogP>
3.6

> <database>
PubChem Compound

> <matchingCount>
176

> <primaryID>
62334

> <queryTranslation>
7628[CompoundID] OR 244[CompoundID] OR 25059[CompoundID] OR 7618[CompoundID] OR 7641[CompoundID] OR 5053[CompoundID] OR 637511[CompoundID] OR 7714[CompoundID] OR 7762[CompoundID] OR 25429[CompoundID]
OR 8842[CompoundID] OR 7794[CompoundID] OR 637566[CompoundID] OR 7843[CompoundID] OR 174[CompoundID] OR 7870[CompoundID] OR 86102[CompoundID] OR 7888[CompoundID] OR 7896[CompoundID] OR 1140[CompoundID
] OR 8042[CompoundID] OR 8058[CompoundID] OR 8078[CompoundID] OR 8087[CompoundID] OR 8117[CompoundID] OR 8133[CompoundID] OR 115224[CompoundID] OR 8175[CompoundID] OR 8194[CompoundID] OR 445639[Compou
ndID] OR 4944[CompoundID] OR 8294[CompoundID] OR 93541[CompoundID] OR 8360[CompoundID] OR 8363[CompoundID] OR 656612[CompoundID] OR 125098[CompoundID] OR 3352[CompoundID] OR 3303913[CompoundID] OR 648
05[CompoundID] OR 31200[CompoundID] OR 1712058[CompoundID] OR 31236[CompoundID] OR 31239[CompoundID] OR 31265[CompoundID] OR 31266[CompoundID] OR 31276[CompoundID] OR 6950273[CompoundID] OR 518659[Com
poundID] OR 14896[CompoundID] OR 14798[CompoundID] OR 14829[CompoundID] OR 14830[CompoundID] OR 8635[CompoundID] OR 23266[CompoundID] OR 4284[CompoundID] OR 8693[CompoundID] OR 22311[CompoundID] OR 87
59[CompoundID] OR 8785[CompoundID] OR 2723810[CompoundID] OR 8857[CompoundID] OR 3893[CompoundID] OR 9936739[CompoundID] OR 516892[CompoundID] OR 5430[CompoundID] OR 9017[CompoundID] OR 15433[Compound
ID] OR 107720[CompoundID] OR 9552081[CompoundID] OR 164825[CompoundID] OR 10275455[CompoundID] OR 16666[CompoundID] OR 9839306[CompoundID] OR 5282227[CompoundID] OR 23676745[CompoundID] OR 32881[Compo
undID] OR 91581[CompoundID] OR 39800[CompoundID] OR 33344[CompoundID] OR 15962220[CompoundID] OR 33528[CompoundID] OR 5365075[CompoundID] OR 62829[CompoundID] OR 162381[CompoundID] OR 517202[CompoundI
D] OR 6433353[CompoundID] OR 2730[CompoundID] OR 5372405[CompoundID] OR 36081[CompoundID] OR 3120[CompoundID] OR 3017[CompoundID] OR 2969[CompoundID] OR 18827[CompoundID] OR 19518[CompoundID] OR 19658
[CompoundID] OR 38283[CompoundID] OR 2758[CompoundID] OR 10112[CompoundID] OR 10340[CompoundID] OR 712[CompoundID] OR 5794[CompoundID] OR 3347[CompoundID] OR 104150[CompoundID] OR 2912[CompoundID] OR
2450[CompoundID] OR 40326[CompoundID] OR 40585[CompoundID] OR 517055[CompoundID] OR 10913[CompoundID] OR 108242[CompoundID] OR 62097[CompoundID] OR 41679[CompoundID] OR 54680676[CompoundID] OR 62118[C
ompoundID] OR 753[CompoundID] OR 1030[CompoundID] OR 23673837[CompoundID] OR 54678504[CompoundID] OR 11442[CompoundID] OR 11463[CompoundID] OR 22230[CompoundID] OR 440917[CompoundID] OR 6054[CompoundI
D] OR 43234[CompoundID] OR 22629[CompoundID] OR 3039[CompoundID] OR 2735067[CompoundID] OR 6144[CompoundID] OR 702[CompoundID] OR 284[CompoundID] OR 176[CompoundID] OR 91688[CompoundID] OR 22947[Compo
undID] OR 47445[CompoundID] OR 1711973[CompoundID] OR 243[CompoundID] OR 10342051[CompoundID] OR 5281875[CompoundID] OR 3776[CompoundID] OR 6224[CompoundID] OR 104926[CompoundID] OR 8755[CompoundID] O
R 338[CompoundID] OR 123622[CompoundID] OR 23954[CompoundID] OR 6334[CompoundID] OR 2537[CompoundID] OR 24261[CompoundID] OR 23665760[CompoundID] OR 83975[CompoundID] OR 784[CompoundID] OR 24437[Compo
undID] OR 5360315[CompoundID] OR 311[CompoundID] OR 6549[CompoundID] OR 107689[CompoundID] OR 17100[CompoundID] OR 24976875[CompoundID] OR 6654[CompoundID] OR 71245[CompoundID] OR 6442842[CompoundID]
OR 62334[CompoundID] OR 54698175[CompoundID] OR 6328154[CompoundID] OR 24762[CompoundID] OR 440950[CompoundID] OR 7017[CompoundID] OR 5281873[CompoundID] OR 323[CompoundID] OR 5281167[CompoundID] OR 7
175[CompoundID] OR 7292[CompoundID] OR 6335613[CompoundID] OR 7456[CompoundID] OR 7462[CompoundID]

> <resultIndex>
59

> <resultRange>
1-176

> <textQuery>
7628,244,25059,7618,7641,5053,637511,7714,7762,25429,8842,7794,637566,7843,174,7870,86102,7888,7896,1140,8042,8058,8078,8087,8117,8133,115224,8175,8194,445639,4944,8294,93541,8360,8363,656612,125098,3
352,3303913,64805,31200,1712058,31236,31239,31265,31266,31276,6950273,518659,14896,14798,14829,14830,8635,23266,4284,8693,22311,8759,8785,2723810,8857,3893,9936739,516892,5430,9017,15433,107720,955208
1,164825,10275455,16666,9839306,5282227,23676745,32881,91581,39800,33344,15962220,33528,5365075,62829,162381,517202,6433353,2730,5372405,36081,3120,3017,2969,18827,19518,19658,38283,2758,10112,10340,7
12,5794,3347,104150,2912,2450,40326,40585,517055,10913,108242,62097,41679,54680676,62118,753,1030,23673837,54678504,11442,11463,22230,440917,6054,43234,22629,3039,2735067,6144,702,284,176,91688,22947,
47445,1711973,243,10342051,5281875,3776,6224,104926,8755,338,123622,23954,6334,2537,24261,23665760,83975,784,24437,5360315,311,6549,107689,17100,24976875,6654,71245,6442842,62334,54698175,6328154,2476
2,440950,7017,5281873,323,5281167,7175,7292,6335613,7456,7462

$$$$
62,118
  SciTegic10191915303D

 22 21  0  0  0  0            999 V2000
    0.4370   -2.1570    0.9350 C   0  0
    0.4350   -1.2000   -0.1000 O   0  0
   -0.4100   -0.1020    0.1600 C   0  0
    0.1310    0.6400    1.3850 C   0  0
   -1.8280   -0.6310    0.3710 C   0  0
   -0.2660    0.7070   -1.1290 C   0  0
    1.1370    1.2910   -1.3070 C   0  0
    1.1740    1.9860   -2.5330 O   0  0
    1.1370   -2.9480    0.6640 H   0  0
    0.6250   -1.6390    1.8770 H   0  0
   -0.5590   -2.5980    0.9900 H   0  0
   -0.2010    0.1830    2.3160 H   0  0
   -0.2010    1.6770    1.3850 H   0  0
    1.2210    0.6400    1.3850 H   0  0
   -1.9510   -1.0860    1.3510 H   0  0
   -2.0740   -1.3810   -0.3790 H   0  0
   -2.5570    0.1770    0.2850 H   0  0
   -1.0200    1.4920   -1.1800 H   0  0
   -0.5430    0.1030   -1.9940 H   0  0
    1.8830    0.4960   -1.3440 H   0  0
    1.3630    1.9980   -0.5080 H   0  0
    2.0680    2.3490   -2.6290 H   0  0
  1  2  1  0
  2  3  1  0
  3  4  1  0
  3  5  1  0
  3  6  1  0
  6  7  1  0
  7  8  1  0
  1  9  1  0
  1 10  1  0
  1 11  1  0
  4 12  1  0
  4 13  1  0
  4 14  1  0
  5 15  1  0
  5 16  1  0
  5 17  1  0
  6 18  1  0
  6 19  1  0
  7 20  1  0
  7 21  1  0
  8 22  1  0
M  END
> <Name>
62,118

> <OBJECTID>
9223372294556155915

> <ActiveAidCount>
0

> <AtomChiralCount>
0

> <AtomChiralDefCount>
0

> <AtomChiralUndefCount>
0

> <BondChiralCount>
0

> <BondChiralDefCount>
0

> <BondChiralUndefCount>
0

> <CID>
62118

> <CanonicalSmiles>
CC(C)(CCO)OC

> <Complexity>
59.5

> <CovalentUnitCount>
1

> <CreateDate>
2005/03/27 00:00

> <HeavyAtomCount>
8

> <HydrogenBondAcceptorCount>
2

> <HydrogenBondDonorCount>
1

> <IUPACName>
3-methoxy-3-methylbutan-1-ol

> <InChI>
InChI=1S/C6H14O2/c1-6(2,8-3)4-5-7/h7H,4-5H2,1-3H3

> <InChIKey>
MFKRHJVUCZRDTF-UHFFFAOYSA-N

> <IsomericSmiles>
CC(C)(CCO)OC

> <IsotopeAtomCount>
0

> <MolecularFormula>
C6H14O2

> <MolecularWeight>
118.17

> <RotatableBondCount>
3

> <Smiles>
COC(CCO)(C)C

> <SourceCategory>
Chemical Vendors
Legacy Depositors
Research and Development
Curation Efforts
Governmental Organizations
Subscription Services
Journal Publishers

> <Synonym>
3-Methoxy-3-methylbutan-1-ol
56539-66-3
3-Methoxy-3-methyl-1-butanol
3-Methyl-3-methoxybutanol
3-Methoxy-3-methylbutanol
1-Butanol, 3-methoxy-3-methyl-
METHOXYMETHYLBUTANOL
3-Methoxy-3-Methyl-Butan-1-Ol
UNII-366754K2K1
MFKRHJVUCZRDTF-UHFFFAOYSA-N
MFCD00044771
366754K2K1
3-Methyl-3-methoxybutanol, 99%
EINECS 260-252-4
ACMC-1BBQK
AC1L1WIM
EC 260-252-4
AC1Q44EU
AC1Q44EV
DSSTox_CID_24389
DSSTox_RID_80190
DSSTox_GSID_44389
SCHEMBL64765
3-methoxy-3-methylbutane-1-ol
CHEMBL3188023
DTXSID8044389
CTK3J4985
MFKRHJVUCZRDTF-UHFFFAOYSA-
3-Methoxy-3-methyl-1-butanol #
ZINC391183
KS-00000VR0
Tox21_302115
3-mercaptopropanoic acid methyl ester
8272AB
ANW-32529
AKOS015851586
NE11008
RTX-011923
NCGC00255903-01
3-Methoxy-3-methyl-1-butanol, >=98%
77908-12-4
AJ-21054
AN-40173
ZB011982
CAS-56539-66-3
DB-052932
FT-0615972
M0695
ST24042263
31927-EP2274983A1
31927-EP2311816A1
31927-EP2371809A1
Q-200383
I14-50021
F0001-1482
InChI=1/C6H14O2/c1-6(2,8-3)4-5-7/h7H,4-5H2,1-3H3

> <TPSA>
29.5

> <TotalAidCount>
210

> <TotalFormalCharge>
0

> <XLogP>
0.4

> <database>
PubChem Compound

> <matchingCount>
176

> <primaryID>
62118

> <queryTranslation>
7628[CompoundID] OR 244[CompoundID] OR 25059[CompoundID] OR 7618[CompoundID] OR 7641[CompoundID] OR 5053[CompoundID] OR 637511[CompoundID] OR 7714[CompoundID] OR 7762[CompoundID] OR 25429[CompoundID]
OR 8842[CompoundID] OR 7794[CompoundID] OR 637566[CompoundID] OR 7843[CompoundID] OR 174[CompoundID] OR 7870[CompoundID] OR 86102[CompoundID] OR 7888[CompoundID] OR 7896[CompoundID] OR 1140[CompoundID
] OR 8042[CompoundID] OR 8058[CompoundID] OR 8078[CompoundID] OR 8087[CompoundID] OR 8117[CompoundID] OR 8133[CompoundID] OR 115224[CompoundID] OR 8175[CompoundID] OR 8194[CompoundID] OR 445639[Compou
ndID] OR 4944[CompoundID] OR 8294[CompoundID] OR 93541[CompoundID] OR 8360[CompoundID] OR 8363[CompoundID] OR 656612[CompoundID] OR 125098[CompoundID] OR 3352[CompoundID] OR 3303913[CompoundID] OR 648
05[CompoundID] OR 31200[CompoundID] OR 1712058[CompoundID] OR 31236[CompoundID] OR 31239[CompoundID] OR 31265[CompoundID] OR 31266[CompoundID] OR 31276[CompoundID] OR 6950273[CompoundID] OR 518659[Com
poundID] OR 14896[CompoundID] OR 14798[CompoundID] OR 14829[CompoundID] OR 14830[CompoundID] OR 8635[CompoundID] OR 23266[CompoundID] OR 4284[CompoundID] OR 8693[CompoundID] OR 22311[CompoundID] OR 87
59[CompoundID] OR 8785[CompoundID] OR 2723810[CompoundID] OR 8857[CompoundID] OR 3893[CompoundID] OR 9936739[CompoundID] OR 516892[CompoundID] OR 5430[CompoundID] OR 9017[CompoundID] OR 15433[Compound
ID] OR 107720[CompoundID] OR 9552081[CompoundID] OR 164825[CompoundID] OR 10275455[CompoundID] OR 16666[CompoundID] OR 9839306[CompoundID] OR 5282227[CompoundID] OR 23676745[CompoundID] OR 32881[Compo
undID] OR 91581[CompoundID] OR 39800[CompoundID] OR 33344[CompoundID] OR 15962220[CompoundID] OR 33528[CompoundID] OR 5365075[CompoundID] OR 62829[CompoundID] OR 162381[CompoundID] OR 517202[CompoundI
D] OR 6433353[CompoundID] OR 2730[CompoundID] OR 5372405[CompoundID] OR 36081[CompoundID] OR 3120[CompoundID] OR 3017[CompoundID] OR 2969[CompoundID] OR 18827[CompoundID] OR 19518[CompoundID] OR 19658
[CompoundID] OR 38283[CompoundID] OR 2758[CompoundID] OR 10112[CompoundID] OR 10340[CompoundID] OR 712[CompoundID] OR 5794[CompoundID] OR 3347[CompoundID] OR 104150[CompoundID] OR 2912[CompoundID] OR
2450[CompoundID] OR 40326[CompoundID] OR 40585[CompoundID] OR 517055[CompoundID] OR 10913[CompoundID] OR 108242[CompoundID] OR 62097[CompoundID] OR 41679[CompoundID] OR 54680676[CompoundID] OR 62118[C
ompoundID] OR 753[CompoundID] OR 1030[CompoundID] OR 23673837[CompoundID] OR 54678504[CompoundID] OR 11442[CompoundID] OR 11463[CompoundID] OR 22230[CompoundID] OR 440917[CompoundID] OR 6054[CompoundI
D] OR 43234[CompoundID] OR 22629[CompoundID] OR 3039[CompoundID] OR 2735067[CompoundID] OR 6144[CompoundID] OR 702[CompoundID] OR 284[CompoundID] OR 176[CompoundID] OR 91688[CompoundID] OR 22947[Compo
undID] OR 47445[CompoundID] OR 1711973[CompoundID] OR 243[CompoundID] OR 10342051[CompoundID] OR 5281875[CompoundID] OR 3776[CompoundID] OR 6224[CompoundID] OR 104926[CompoundID] OR 8755[CompoundID] O
R 338[CompoundID] OR 123622[CompoundID] OR 23954[CompoundID] OR 6334[CompoundID] OR 2537[CompoundID] OR 24261[CompoundID] OR 23665760[CompoundID] OR 83975[CompoundID] OR 784[CompoundID] OR 24437[Compo
undID] OR 5360315[CompoundID] OR 311[CompoundID] OR 6549[CompoundID] OR 107689[CompoundID] OR 17100[CompoundID] OR 24976875[CompoundID] OR 6654[CompoundID] OR 71245[CompoundID] OR 6442842[CompoundID]
OR 62334[CompoundID] OR 54698175[CompoundID] OR 6328154[CompoundID] OR 24762[CompoundID] OR 440950[CompoundID] OR 7017[CompoundID] OR 5281873[CompoundID] OR 323[CompoundID] OR 5281167[CompoundID] OR 7
175[CompoundID] OR 7292[CompoundID] OR 6335613[CompoundID] OR 7456[CompoundID] OR 7462[CompoundID]

> <resultIndex>
60

> <resultRange>
1-176

> <textQuery>
7628,244,25059,7618,7641,5053,637511,7714,7762,25429,8842,7794,637566,7843,174,7870,86102,7888,7896,1140,8042,8058,8078,8087,8117,8133,115224,8175,8194,445639,4944,8294,93541,8360,8363,656612,125098,3
352,3303913,64805,31200,1712058,31236,31239,31265,31266,31276,6950273,518659,14896,14798,14829,14830,8635,23266,4284,8693,22311,8759,8785,2723810,8857,3893,9936739,516892,5430,9017,15433,107720,955208
1,164825,10275455,16666,9839306,5282227,23676745,32881,91581,39800,33344,15962220,33528,5365075,62829,162381,517202,6433353,2730,5372405,36081,3120,3017,2969,18827,19518,19658,38283,2758,10112,10340,7
12,5794,3347,104150,2912,2450,40326,40585,517055,10913,108242,62097,41679,54680676,62118,753,1030,23673837,54678504,11442,11463,22230,440917,6054,43234,22629,3039,2735067,6144,702,284,176,91688,22947,
47445,1711973,243,10342051,5281875,3776,6224,104926,8755,338,123622,23954,6334,2537,24261,23665760,83975,784,24437,5360315,311,6549,107689,17100,24976875,6654,71245,6442842,62334,54698175,6328154,2476
2,440950,7017,5281873,323,5281167,7175,7292,6335613,7456,7462

$$$$
62,097
  SciTegic10191915303D

 24 23  0  0  0  0            999 V2000
    4.3030   -2.7400    0.0000 C   0  0
    1.0410   -1.3340    0.0000 C   0  0
    5.4920   -2.7400    0.0000 C   0  0
    0.3190   -2.3030    0.0000 O   0  0
    0.5100   -0.0760    0.0000 N   0  0
    6.4890   -4.4630    0.0000 I   0  0
    2.3690   -1.4000    0.0000 O   0  0
    2.8440   -2.7400    0.0000 C   0  0
   -0.9510    0.0900    0.0000 C   0  0
   -1.3340    1.5700    0.0000 C   0  0
   -2.8480    1.7890    0.0000 C   0  0
   -3.2300    3.2700    0.0000 C   0  0
    1.1100    0.7250    0.0000 H   0  0
    2.4810   -3.2300   -0.9020 H   0  0
    2.4810   -3.2300    0.9050 H   0  0
   -1.3690   -0.4160   -0.8690 H   0  0
   -1.3690   -0.4160    0.8710 H   0  0
   -0.8710    2.0880    0.8400 H   0  0
   -0.8710    2.0880   -0.8380 H   0  0
   -3.3100    1.2700   -0.8380 H   0  0
   -3.3100    1.2720    0.8400 H   0  0
   -4.3140    3.3870   -0.0100 H   0  0
   -2.8260    3.7720    0.8790 H   0  0
   -2.8340    3.7700   -0.8830 H   0  0
  1  3  3  0
  1  8  1  0
  2  7  1  0
  2  4  2  0
  2  5  1  0
  3  6  1  0
  5  9  1  0
  7  8  1  0
  9 10  1  0
 10 11  1  0
 11 12  1  0
  5 13  1  0
  8 14  1  0
  8 15  1  0
  9 16  1  0
  9 17  1  0
 10 18  1  0
 10 19  1  0
 11 20  1  0
 11 21  1  0
 12 22  1  0
 12 23  1  0
 12 24  1  0
M  END
> <Name>
62,097

> <OBJECTID>
9223372298851123211

> <ActiveAidCount>
69

> <AtomChiralCount>
0

> <AtomChiralDefCount>
0

> <AtomChiralUndefCount>
0

> <BondChiralCount>
0

> <BondChiralDefCount>
0

> <BondChiralUndefCount>
0

> <CID>
62097

> <CanonicalSmiles>
CCCCNC(=O)OCC#CI

> <Complexity>
192

> <CovalentUnitCount>
1

> <CreateDate>
2005/03/27 00:00

> <HeavyAtomCount>
12

> <HydrogenBondAcceptorCount>
2

> <HydrogenBondDonorCount>
1

> <IUPACName>
3-iodoprop-2-ynyl N-butylcarbamate

> <InChI>
InChI=1S/C8H12INO2/c1-2-3-6-10-8(11)12-7-4-5-9/h2-3,6-7H2,1H3,(H,10,11)

> <InChIKey>
WYVVKGNFXHOCQV-UHFFFAOYSA-N

> <IsomericSmiles>
CCCCNC(=O)OCC#CI

> <IsotopeAtomCount>
0

> <MeSHHeading>
3-iodo-2-propynylbutylcarbamate

> <MeSHTerm>
3-IPBC
iodopropynyl butylcarbamate
3-iodo-2-propynyl-butylcarbamate
3-iodo-2-propynylbutylcarbamate

> <MolecularFormula>
C8H12INO2

> <MolecularWeight>
281.09

> <RotatableBondCount>
5

> <Smiles>
C(COC(NCCCC)=O)#CI

> <SourceCategory>
Chemical Vendors
Legacy Depositors
Research and Development
Curation Efforts
Governmental Organizations
Subscription Services
Journal Publishers
NIH Initiatives

> <Synonym>
55406-53-6
3-iodoprop-2-yn-1-yl butylcarbamate
Iodopropynyl butylcarbamate
Iodocarb
Ipbc
Woodlife
3-Iodo-2-propynyl butylcarbamate
1-Iodoprop-1-yn-3-yl N-n-butylcarbamate
Troysan KK-108A
Carbamic acid, butyl-, 3-iodo-2-propynyl ester
Troysan polyphase anti-mildew
Caswell No. 501A
UNII-603P14DHEB
HSDB 7314
Butyl-3-iodo-2-propynylcarbamate
3-Iodo-2-propynyl butyl carbamate
3-iodoprop-2-ynyl N-butylcarbamate
3-Iodo-2-propynyl-N-butylcarbamate
EINECS 259-627-5
EPA Pesticide Chemical Code 107801
BRN 2248232
603P14DHEB
CHEBI:83279
3-iodoprop-2-ynyl butylcarbamate
WYVVKGNFXHOCQV-UHFFFAOYSA-N
Carbamic acid, N-butyl-, 3-iodo-2-propyn-1-yl ester
AK-49902
DSSTox_CID_8038
Carbamic acid, butyl-3-iodo-2-propynyl ester
DSSTox_RID_78646
DSSTox_GSID_28038
W-105563
CAS-55406-53-6
iodocarbe
Biodocarb
Ecobois
Dekaben LMB
Acticide IPW 50
Coatcide 123
ACMC-209uq3
AC1L1WH1
SCHEMBL114369
3-Iodopropargyl n-Butylcarbamate
CHEMBL1893913
DTXSID0028038
KS-00000LXO
ZINC1850357
3-Iodo-2-propynyl butylcarbamate #
Tox21_201864
Tox21_301117
ANW-44089
MFCD00072438
AKOS015905567
GS-3240
3-iodo-2-propyn-1-yl N-butylcarbamate
3-iodoprop-2-yn-1-yl N-butylcarbamate
NCGC00164376-01
NCGC00164376-02
NCGC00164376-03
NCGC00164376-04
NCGC00164376-05
NCGC00255017-01
NCGC00259413-01
AJ-32035
AN-25126
CJ-07216
CJ-30462
LS-49101
3-Iodo-2-propynyl N-butylcarbamate, 97%
3-IODO-2-PROPYNYL BUTYL CARBBAMATE
AX8005349
ST2410748
TC-132834
4CH-014398
FT-0615885
I0666
N-Butylcarbamic Acid 3-Iodo-2-propynyl Ester
06I536
M-7688
Carbamic acid, butyl-, 3-iodo-2-propynyl ester;
N-Butylcarbamic Acid 3-Iodo-2-propyn-1-yl Ester
I14-2271
3-Iodo-2-propynyl N-butylcarbamate, analytical standard

> <TPSA>
38.3

> <TotalAidCount>
244

> <TotalFormalCharge>
0

> <XLogP>
2.1

> <database>
PubChem Compound

> <matchingCount>
176

> <primaryID>
62097

> <queryTranslation>
7628[CompoundID] OR 244[CompoundID] OR 25059[CompoundID] OR 7618[CompoundID] OR 7641[CompoundID] OR 5053[CompoundID] OR 637511[CompoundID] OR 7714[CompoundID] OR 7762[CompoundID] OR 25429[CompoundID]
OR 8842[CompoundID] OR 7794[CompoundID] OR 637566[CompoundID] OR 7843[CompoundID] OR 174[CompoundID] OR 7870[CompoundID] OR 86102[CompoundID] OR 7888[CompoundID] OR 7896[CompoundID] OR 1140[CompoundID
] OR 8042[CompoundID] OR 8058[CompoundID] OR 8078[CompoundID] OR 8087[CompoundID] OR 8117[CompoundID] OR 8133[CompoundID] OR 115224[CompoundID] OR 8175[CompoundID] OR 8194[CompoundID] OR 445639[Compou
ndID] OR 4944[CompoundID] OR 8294[CompoundID] OR 93541[CompoundID] OR 8360[CompoundID] OR 8363[CompoundID] OR 656612[CompoundID] OR 125098[CompoundID] OR 3352[CompoundID] OR 3303913[CompoundID] OR 648
05[CompoundID] OR 31200[CompoundID] OR 1712058[CompoundID] OR 31236[CompoundID] OR 31239[CompoundID] OR 31265[CompoundID] OR 31266[CompoundID] OR 31276[CompoundID] OR 6950273[CompoundID] OR 518659[Com
poundID] OR 14896[CompoundID] OR 14798[CompoundID] OR 14829[CompoundID] OR 14830[CompoundID] OR 8635[CompoundID] OR 23266[CompoundID] OR 4284[CompoundID] OR 8693[CompoundID] OR 22311[CompoundID] OR 87
59[CompoundID] OR 8785[CompoundID] OR 2723810[CompoundID] OR 8857[CompoundID] OR 3893[CompoundID] OR 9936739[CompoundID] OR 516892[CompoundID] OR 5430[CompoundID] OR 9017[CompoundID] OR 15433[Compound
ID] OR 107720[CompoundID] OR 9552081[CompoundID] OR 164825[CompoundID] OR 10275455[CompoundID] OR 16666[CompoundID] OR 9839306[CompoundID] OR 5282227[CompoundID] OR 23676745[CompoundID] OR 32881[Compo
undID] OR 91581[CompoundID] OR 39800[CompoundID] OR 33344[CompoundID] OR 15962220[CompoundID] OR 33528[CompoundID] OR 5365075[CompoundID] OR 62829[CompoundID] OR 162381[CompoundID] OR 517202[CompoundI
D] OR 6433353[CompoundID] OR 2730[CompoundID] OR 5372405[CompoundID] OR 36081[CompoundID] OR 3120[CompoundID] OR 3017[CompoundID] OR 2969[CompoundID] OR 18827[CompoundID] OR 19518[CompoundID] OR 19658
[CompoundID] OR 38283[CompoundID] OR 2758[CompoundID] OR 10112[CompoundID] OR 10340[CompoundID] OR 712[CompoundID] OR 5794[CompoundID] OR 3347[CompoundID] OR 104150[CompoundID] OR 2912[CompoundID] OR
2450[CompoundID] OR 40326[CompoundID] OR 40585[CompoundID] OR 517055[CompoundID] OR 10913[CompoundID] OR 108242[CompoundID] OR 62097[CompoundID] OR 41679[CompoundID] OR 54680676[CompoundID] OR 62118[C
ompoundID] OR 753[CompoundID] OR 1030[CompoundID] OR 23673837[CompoundID] OR 54678504[CompoundID] OR 11442[CompoundID] OR 11463[CompoundID] OR 22230[CompoundID] OR 440917[CompoundID] OR 6054[CompoundI
D] OR 43234[CompoundID] OR 22629[CompoundID] OR 3039[CompoundID] OR 2735067[CompoundID] OR 6144[CompoundID] OR 702[CompoundID] OR 284[CompoundID] OR 176[CompoundID] OR 91688[CompoundID] OR 22947[Compo
undID] OR 47445[CompoundID] OR 1711973[CompoundID] OR 243[CompoundID] OR 10342051[CompoundID] OR 5281875[CompoundID] OR 3776[CompoundID] OR 6224[CompoundID] OR 104926[CompoundID] OR 8755[CompoundID] O
R 338[CompoundID] OR 123622[CompoundID] OR 23954[CompoundID] OR 6334[CompoundID] OR 2537[CompoundID] OR 24261[CompoundID] OR 23665760[CompoundID] OR 83975[CompoundID] OR 784[CompoundID] OR 24437[Compo
undID] OR 5360315[CompoundID] OR 311[CompoundID] OR 6549[CompoundID] OR 107689[CompoundID] OR 17100[CompoundID] OR 24976875[CompoundID] OR 6654[CompoundID] OR 71245[CompoundID] OR 6442842[CompoundID]
OR 62334[CompoundID] OR 54698175[CompoundID] OR 6328154[CompoundID] OR 24762[CompoundID] OR 440950[CompoundID] OR 7017[CompoundID] OR 5281873[CompoundID] OR 323[CompoundID] OR 5281167[CompoundID] OR 7
175[CompoundID] OR 7292[CompoundID] OR 6335613[CompoundID] OR 7456[CompoundID] OR 7462[CompoundID]

> <resultIndex>
61

> <resultRange>
1-176

> <textQuery>
7628,244,25059,7618,7641,5053,637511,7714,7762,25429,8842,7794,637566,7843,174,7870,86102,7888,7896,1140,8042,8058,8078,8087,8117,8133,115224,8175,8194,445639,4944,8294,93541,8360,8363,656612,125098,3
352,3303913,64805,31200,1712058,31236,31239,31265,31266,31276,6950273,518659,14896,14798,14829,14830,8635,23266,4284,8693,22311,8759,8785,2723810,8857,3893,9936739,516892,5430,9017,15433,107720,955208
1,164825,10275455,16666,9839306,5282227,23676745,32881,91581,39800,33344,15962220,33528,5365075,62829,162381,517202,6433353,2730,5372405,36081,3120,3017,2969,18827,19518,19658,38283,2758,10112,10340,7
12,5794,3347,104150,2912,2450,40326,40585,517055,10913,108242,62097,41679,54680676,62118,753,1030,23673837,54678504,11442,11463,22230,440917,6054,43234,22629,3039,2735067,6144,702,284,176,91688,22947,
47445,1711973,243,10342051,5281875,3776,6224,104926,8755,338,123622,23954,6334,2537,24261,23665760,83975,784,24437,5360315,311,6549,107689,17100,24976875,6654,71245,6442842,62334,54698175,6328154,2476
2,440950,7017,5281873,323,5281167,7175,7292,6335613,7456,7462

$$$$
47,445
  SciTegic10191915303D

 34 35  0  0  0  0            999 V2000
   -0.3200    0.5140   -1.2930 O   0  0
   -0.1070   -0.1820   -0.3260 C   0  0
   -0.6070   -1.4510   -0.2680 N   0  0
   -1.3540   -1.9410   -1.3010 C   0  0
   -1.5740   -1.2560   -2.2720 O   0  0
   -1.8890   -3.3360   -1.2050 C   0  0
   -3.2770   -3.5390   -1.2950 C   0  0
   -3.8110   -4.8340   -1.2070 C   0  0
   -2.9590   -5.9340   -1.0270 C   0  0
   -1.5700   -5.7400   -0.9400 C   0  0
   -1.0270   -4.4430   -1.0270 C   0  0
    0.6780   -4.2480   -0.9160 Cl  0  0
    0.6370    0.2950    0.7150 N   0  0
    1.1450    1.5650    0.6700 C   0  0
    1.1330    2.3710    1.8220 C   0  0
    1.6560    3.6760    1.7730 C   0  0
    2.1910    4.1800    0.5760 C   0  0
    2.6800    5.4030    0.5310 O   0  0
    2.6470    6.1780    1.7210 C   0  0
    3.1950    7.4100    1.4780 F   0  0
    3.3630    5.5410    2.7010 F   0  0
    1.3460    6.3280    2.1310 F   0  0
    2.2010    3.3730   -0.5760 C   0  0
    1.6800    2.0690   -0.5310 C   0  0
   -0.4260   -2.0190    0.5350 H   0  0
   -3.9450   -2.6990   -1.4340 H   0  0
   -4.8790   -4.9840   -1.2750 H   0  0
   -3.3690   -6.9300   -0.9590 H   0  0
   -0.9280   -6.6000   -0.8030 H   0  0
    0.8130   -0.2830    1.5140 H   0  0
    0.7270    2.0040    2.7540 H   0  0
    1.6450    4.2910    2.6620 H   0  0
    2.6110    3.7560   -1.5000 H   0  0
    1.6970    1.4650   -1.4280 H   0  0
  1  2  2  0
  2  3  1  0
  2 13  1  0
  3  4  1  0
  4  5  2  0
  4  6  1  0
  6  7  2  0
  6 11  1  0
  7  8  1  0
  8  9  2  0
  9 10  1  0
 10 11  2  0
 11 12  1  0
 13 14  1  0
 14 15  2  0
 14 24  1  0
 15 16  1  0
 16 17  2  0
 17 18  1  0
 17 23  1  0
 18 19  1  0
 19 20  1  0
 19 21  1  0
 19 22  1  0
 23 24  2  0
  3 25  1  0
  7 26  1  0
  8 27  1  0
  9 28  1  0
 10 29  1  0
 13 30  1  0
 15 31  1  0
 16 32  1  0
 23 33  1  0
 24 34  1  0
M  END
> <Name>
47,445

> <OBJECTID>
9223372303146090507

> <ActiveAidCount>
1

> <AtomChiralCount>
0

> <AtomChiralDefCount>
0

> <AtomChiralUndefCount>
0

> <BondChiralCount>
0

> <BondChiralDefCount>
0

> <BondChiralUndefCount>
0

> <CID>
47445

> <CanonicalSmiles>
C1=CC=C(C(=C1)C(=O)NC(=O)NC2=CC=C(C=C2)OC(F)(F)F)Cl

> <Complexity>
454

> <CovalentUnitCount>
1

> <CreateDate>
2005/08/08 00:00

> <HeavyAtomCount>
24

> <HydrogenBondAcceptorCount>
6

> <HydrogenBondDonorCount>
2

> <IUPACName>
2-chloro-N-[[4-(trifluoromethoxy)phenyl]carbamoyl]benzamide

> <InChI>
InChI=1S/C15H10ClF3N2O3/c16-12-4-2-1-3-11(12)13(22)21-14(23)20-9-5-7-10(8-6-9)24-15(17,18)19/h1-8H,(H2,20,21,22,23)

> <InChIKey>
XAIPTRIXGHTTNT-UHFFFAOYSA-N

> <IsomericSmiles>
C1=CC=C(C(=C1)C(=O)NC(=O)NC2=CC=C(C=C2)OC(F)(F)F)Cl

> <IsotopeAtomCount>
0

> <MeSHHeading>
triflumuron

> <MeSHTerm>
SIR 8514
OMS-2014
triflumuron
2-chloro-N-(4-(trifluoromethoxy)phenylaminocarbonyl)benzamide
BAY SIR 8514
BAY-SIR 8514
1-(4-trifluoromethoxyphenyl)-3-(2-chlorobenzoyl)urea
BAY-Sir-8514
Alsystin
OMS 2014
BAY Vi 7533

> <MolecularFormula>
C15H10ClF3N2O3

> <MolecularWeight>
358.7

> <PharmAction>
Pesticides
Agrochemicals
Chemosterilants
Chemical Actions and Uses
Toxic Actions
Insecticides
Specialty Uses of Chemicals

> <RotatableBondCount>
3

> <Smiles>
O=C(Nc1ccc(OC(F)(F)F)cc1)NC(c2c(Cl)cccc2)=O

> <SourceCategory>
Legacy Depositors
Chemical Vendors
Research and Development
Curation Efforts
Governmental Organizations
NIH Initiatives
Subscription Services
Journal Publishers

> <Synonym>
Triflumuron
64628-44-0
Alsystin
Trifluron
Mascot
Alsystine
Bay-sir 8514
Triflumuron [ISO]
Caswell No. 217C
UNII-3FT64DYG8K
SIR 8514
BAY-Vi 7533
OMS 2015
EINECS 264-980-3
EPA Pesticide Chemical Code 118201
2-Chloro-N-(((4-(trifluoromethoxy)phenyl)amino)carbonyl)benzamide
BRN 2776684
3FT64DYG8K
AI3-29368
2-chloro-N-[[4-(trifluoromethoxy)phenyl]carbamoyl]benzamide
CHEBI:39388
1-(o-chlorobenzoyl)-3-(p-(trifluoromethoxy)phenyl)urea
2-chloro-N-{[4-(trifluoromethoxy)phenyl]carbamoyl}benzamide
2-chloro-N-({[4-(trifluoromethoxy)phenyl]amino}carbonyl)benzamide
Benzamide, 2-chloro-N-(((4-(trifluoromethoxy)phenyl)amino)carbonyl)-
Benzamide, 2-chloro-N-[[[4-(trifluoromethoxy)phenyl]amino]carbonyl]-
C15H10ClF3N2O3
BAY SIR 8514
DSSTox_CID_14355
DSSTox_RID_79145
DSSTox_GSID_34355
SCHEMBL23700
SPECTRUM1505170
AC1L2I33
CHEMBL1394379
DTXSID5034355
XAIPTRIXGHTTNT-UHFFFAOYSA-N
1-(o-Chlorobenzoyl)-3-(p-(trifluoromethoxy)phenyl)urea (8CI)
ZINC1845293
Tox21_301874
MFCD00072496
AKOS015889501
CCG-231010
NCGC00094568-01
NCGC00094568-02
NCGC00255190-01
AN-38779
AS-13364
CC-35346
CJ-30073
I001
LS-26231
CAS-64628-44-0
FT-0630748
C18615
Triflumuron, PESTANAL(R), analytical standard
628T440
A834834
C-20859
I01-2062
Triflumuron, certified reference material, TraceCERT(R)
2-chloro-N-(4-(trifluoromethoxy)phenylcarbamoyl)benzamide
2-chloro-N-[oxo-[4-(trifluoromethoxy)anilino]methyl]benzamide
2-chloranyl-N-[[4-(trifluoromethyloxy)phenyl]carbamoyl]benzamide

> <TPSA>
67.4

> <TotalAidCount>
301

> <TotalFormalCharge>
0

> <XLogP>
5.6

> <database>
PubChem Compound

> <matchingCount>
176

> <primaryID>
47445

> <queryTranslation>
7628[CompoundID] OR 244[CompoundID] OR 25059[CompoundID] OR 7618[CompoundID] OR 7641[CompoundID] OR 5053[CompoundID] OR 637511[CompoundID] OR 7714[CompoundID] OR 7762[CompoundID] OR 25429[CompoundID]
OR 8842[CompoundID] OR 7794[CompoundID] OR 637566[CompoundID] OR 7843[CompoundID] OR 174[CompoundID] OR 7870[CompoundID] OR 86102[CompoundID] OR 7888[CompoundID] OR 7896[CompoundID] OR 1140[CompoundID
] OR 8042[CompoundID] OR 8058[CompoundID] OR 8078[CompoundID] OR 8087[CompoundID] OR 8117[CompoundID] OR 8133[CompoundID] OR 115224[CompoundID] OR 8175[CompoundID] OR 8194[CompoundID] OR 445639[Compou
ndID] OR 4944[CompoundID] OR 8294[CompoundID] OR 93541[CompoundID] OR 8360[CompoundID] OR 8363[CompoundID] OR 656612[CompoundID] OR 125098[CompoundID] OR 3352[CompoundID] OR 3303913[CompoundID] OR 648
05[CompoundID] OR 31200[CompoundID] OR 1712058[CompoundID] OR 31236[CompoundID] OR 31239[CompoundID] OR 31265[CompoundID] OR 31266[CompoundID] OR 31276[CompoundID] OR 6950273[CompoundID] OR 518659[Com
poundID] OR 14896[CompoundID] OR 14798[CompoundID] OR 14829[CompoundID] OR 14830[CompoundID] OR 8635[CompoundID] OR 23266[CompoundID] OR 4284[CompoundID] OR 8693[CompoundID] OR 22311[CompoundID] OR 87
59[CompoundID] OR 8785[CompoundID] OR 2723810[CompoundID] OR 8857[CompoundID] OR 3893[CompoundID] OR 9936739[CompoundID] OR 516892[CompoundID] OR 5430[CompoundID] OR 9017[CompoundID] OR 15433[Compound
ID] OR 107720[CompoundID] OR 9552081[CompoundID] OR 164825[CompoundID] OR 10275455[CompoundID] OR 16666[CompoundID] OR 9839306[CompoundID] OR 5282227[CompoundID] OR 23676745[CompoundID] OR 32881[Compo
undID] OR 91581[CompoundID] OR 39800[CompoundID] OR 33344[CompoundID] OR 15962220[CompoundID] OR 33528[CompoundID] OR 5365075[CompoundID] OR 62829[CompoundID] OR 162381[CompoundID] OR 517202[CompoundI
D] OR 6433353[CompoundID] OR 2730[CompoundID] OR 5372405[CompoundID] OR 36081[CompoundID] OR 3120[CompoundID] OR 3017[CompoundID] OR 2969[CompoundID] OR 18827[CompoundID] OR 19518[CompoundID] OR 19658
[CompoundID] OR 38283[CompoundID] OR 2758[CompoundID] OR 10112[CompoundID] OR 10340[CompoundID] OR 712[CompoundID] OR 5794[CompoundID] OR 3347[CompoundID] OR 104150[CompoundID] OR 2912[CompoundID] OR
2450[CompoundID] OR 40326[CompoundID] OR 40585[CompoundID] OR 517055[CompoundID] OR 10913[CompoundID] OR 108242[CompoundID] OR 62097[CompoundID] OR 41679[CompoundID] OR 54680676[CompoundID] OR 62118[C
ompoundID] OR 753[CompoundID] OR 1030[CompoundID] OR 23673837[CompoundID] OR 54678504[CompoundID] OR 11442[CompoundID] OR 11463[CompoundID] OR 22230[CompoundID] OR 440917[CompoundID] OR 6054[CompoundI
D] OR 43234[CompoundID] OR 22629[CompoundID] OR 3039[CompoundID] OR 2735067[CompoundID] OR 6144[CompoundID] OR 702[CompoundID] OR 284[CompoundID] OR 176[CompoundID] OR 91688[CompoundID] OR 22947[Compo
undID] OR 47445[CompoundID] OR 1711973[CompoundID] OR 243[CompoundID] OR 10342051[CompoundID] OR 5281875[CompoundID] OR 3776[CompoundID] OR 6224[CompoundID] OR 104926[CompoundID] OR 8755[CompoundID] O
R 338[CompoundID] OR 123622[CompoundID] OR 23954[CompoundID] OR 6334[CompoundID] OR 2537[CompoundID] OR 24261[CompoundID] OR 23665760[CompoundID] OR 83975[CompoundID] OR 784[CompoundID] OR 24437[Compo
undID] OR 5360315[CompoundID] OR 311[CompoundID] OR 6549[CompoundID] OR 107689[CompoundID] OR 17100[CompoundID] OR 24976875[CompoundID] OR 6654[CompoundID] OR 71245[CompoundID] OR 6442842[CompoundID]
OR 62334[CompoundID] OR 54698175[CompoundID] OR 6328154[CompoundID] OR 24762[CompoundID] OR 440950[CompoundID] OR 7017[CompoundID] OR 5281873[CompoundID] OR 323[CompoundID] OR 5281167[CompoundID] OR 7
175[CompoundID] OR 7292[CompoundID] OR 6335613[CompoundID] OR 7456[CompoundID] OR 7462[CompoundID]

> <resultIndex>
62

> <resultRange>
1-176

> <textQuery>
7628,244,25059,7618,7641,5053,637511,7714,7762,25429,8842,7794,637566,7843,174,7870,86102,7888,7896,1140,8042,8058,8078,8087,8117,8133,115224,8175,8194,445639,4944,8294,93541,8360,8363,656612,125098,3
352,3303913,64805,31200,1712058,31236,31239,31265,31266,31276,6950273,518659,14896,14798,14829,14830,8635,23266,4284,8693,22311,8759,8785,2723810,8857,3893,9936739,516892,5430,9017,15433,107720,955208
1,164825,10275455,16666,9839306,5282227,23676745,32881,91581,39800,33344,15962220,33528,5365075,62829,162381,517202,6433353,2730,5372405,36081,3120,3017,2969,18827,19518,19658,38283,2758,10112,10340,7
12,5794,3347,104150,2912,2450,40326,40585,517055,10913,108242,62097,41679,54680676,62118,753,1030,23673837,54678504,11442,11463,22230,440917,6054,43234,22629,3039,2735067,6144,702,284,176,91688,22947,
47445,1711973,243,10342051,5281875,3776,6224,104926,8755,338,123622,23954,6334,2537,24261,23665760,83975,784,24437,5360315,311,6549,107689,17100,24976875,6654,71245,6442842,62334,54698175,6328154,2476
2,440950,7017,5281873,323,5281167,7175,7292,6335613,7456,7462

$$$$
43,234
  SciTegic10191915303D

 39 41  0  0  1  0            999 V2000
   -0.8240    3.9940    0.3850 Cl  0  0
    4.4820    4.6210   -0.3810 Cl  0  0
    0.1170   -0.3630    0.0180 O   0  0
   -1.0350    1.1970    1.1170 O   0  0
   -2.0980   -0.0610   -1.4120 N   0  0
   -1.7460   -1.2010   -1.9880 N   0  0
   -3.8010   -1.4300   -1.3080 N   0  0
   -0.3070    0.9840   -0.0720 C   0  0  3  0  0  0
    0.8590    1.9060   -0.1460 C   0  0
   -1.2400    1.1250   -1.2690 C   0  0
    0.7130    3.2970    0.0530 C   0  0
   -0.2720   -0.9220    1.2560 C   0  0  3  0  0  0
   -1.4490   -0.0430    1.6450 C   0  0
    2.1310    1.3710   -0.4180 C   0  0
    1.8420    4.1370   -0.0210 C   0  0
    3.1110    3.5960   -0.2930 C   0  0
    3.2540    2.2110   -0.4920 C   0  0
   -0.6230   -2.3930    1.0700 C   0  0
   -3.3670   -0.1640   -0.9780 C   0  0
   -2.7680   -2.0720   -1.9450 C   0  0
    0.5020   -3.0940    0.3110 C   0  0
    1.8730   -2.8730    0.9510 C   0  0
   -0.6330    1.2420   -2.1660 H   0  0
   -1.8630    2.0140   -1.1700 H   0  0
    0.5490   -0.7970    1.9510 H   0  0
   -2.3600   -0.3440    1.1450 H   0  0
   -1.6250    0.0250    2.7070 H   0  0
    2.2520    0.3080   -0.5740 H   0  0
    1.7340    5.2030    0.1310 H   0  0
    4.2230    1.7810   -0.7030 H   0  0
   -1.5700   -2.4980    0.5390 H   0  0
   -0.7970   -2.8730    2.0330 H   0  0
   -3.9420    0.5980   -0.4670 H   0  0
   -2.7760   -3.0820   -2.3360 H   0  0
    0.2930   -4.1580    0.2070 H   0  0
    0.5120   -2.7870   -0.7340 H   0  0
    2.6250   -3.5080    0.4850 H   0  0
    2.1800   -1.8300    0.8560 H   0  0
    1.8460   -3.1150    2.0140 H   0  0
  1 11  1  0
  2 16  1  0
  3  8  1  0
  3 12  1  0
  4  8  1  0
  4 13  1  0
  5  6  1  0
  5 10  1  0
  5 19  1  0
  6 20  2  0
  7 19  2  0
  7 20  1  0
  8  9  1  0
  8 10  1  0
  9 11  2  0
  9 14  1  0
 11 15  1  0
 12 13  1  0
 12 18  1  0
 14 17  2  0
 15 16  2  0
 16 17  1  0
 18 21  1  0
 21 22  1  0
 10 23  1  0
 10 24  1  0
 12 25  1  0
 13 26  1  0
 13 27  1  0
 14 28  1  0
 15 29  1  0
 17 30  1  0
 18 31  1  0
 18 32  1  0
 19 33  1  0
 20 34  1  0
 21 35  1  0
 21 36  1  0
 22 37  1  0
 22 38  1  0
 22 39  1  0
M  END
> <Name>
43,234

> <OBJECTID>
9223372307441057803

> <ActiveAidCount>
86

> <AtomChiralCount>
2

> <AtomChiralDefCount>
0

> <AtomChiralUndefCount>
2

> <BondChiralCount>
0

> <BondChiralDefCount>
0

> <BondChiralUndefCount>
0

> <CID>
43234

> <CanonicalSmiles>
CCCC1COC(O1)(CN2C=NC=N2)C3=C(C=C(C=C3)Cl)Cl

> <Complexity>
377

> <CovalentUnitCount>
1

> <CreateDate>
2005/03/27 00:00

> <HeavyAtomCount>
22

> <HydrogenBondAcceptorCount>
4

> <HydrogenBondDonorCount>
0

> <IUPACName>
1-[[2-(2,4-dichlorophenyl)-4-propyl-1,3-dioxolan-2-yl]methyl]-1,2,4-triazole

> <InChI>
InChI=1S/C15H17Cl2N3O2/c1-2-3-12-7-21-15(22-12,8-20-10-18-9-19-20)13-5-4-11(16)6-14(13)17/h4-6,9-10,12H,2-3,7-8H2,1H3

> <InChIKey>
STJLVHWMYQXCPB-UHFFFAOYSA-N

> <IsomericSmiles>
CCCC1COC(O1)(CN2C=NC=N2)C3=C(C=C(C=C3)Cl)Cl

> <IsotopeAtomCount>
0

> <MeSHHeading>
propiconazole

> <MeSHTerm>
1-((2-(2,4-dichlorophenyl)-4-propyl-1,3-dioxolan-2-yl)methyl)-1H-1,2,4-triazole
propiconazole

> <MolecularFormula>
C15H17Cl2N3O2

> <MolecularWeight>
342.2

> <RotatableBondCount>
5

> <Smiles>
Clc1cc(ccc1C2(Cn3cncn3)OCC(CCC)O2)Cl

> <SourceCategory>
Legacy Depositors
Chemical Vendors
Research and Development
Curation Efforts
Governmental Organizations
NIH Initiatives
Subscription Services
Journal Publishers

> <Synonym>
PROPICONAZOLE
60207-90-1
Propiconazol
Desmel
Tilt
Banner
Orbit
Proconazole
Caswell No. 323EE
CGD 92710F
Propiconazole [BSI:ISO]
CGA-64250
C15H17Cl2N3O2
HSDB 6731
1-((2-(2,4-Dichlorophenyl)-4-propyl-1,3-dioxolan-2-yl)methyl)-1H-1,2,4-triazole
EINECS 262-104-4
EPA Pesticide Chemical Code 122101
BRN 0841361
1-[[2-(2,4-dichlorophenyl)-4-propyl-1,3-dioxolan-2-yl]methyl]-1,2,4-triazole
1-{[2-(2,4-dichlorophenyl)-4-propyl-1,3-dioxolan-2-yl]methyl}-1H-1,2,4-triazole
CHEBI:8489
CHEMBL560579
STJLVHWMYQXCPB-UHFFFAOYSA-N
1H-1,2,4-Triazole, 1-[[2-(2,4-dichlorophenyl)-4-propyl-1,3-dioxolan-2-yl]methyl]-
DSSTox_CID_4280
1-(2-(2,4-Dichlorophenyl)-4-propyl-1,3-dioxolan-2-ylmethyl)-1H-1,2,4-triazole
1-[[2-(2,4-Dichlorophenyl)-4-propyl-1,3-dioxolan-2-yl]methyl]-1H-1,2,4-triazole
DSSTox_RID_77353
DSSTox_GSID_24280
W-105271
juno
Binghuanzuo
Wocosen
Bamper
Bumper
Dhan
Banner Maxx
2-(2,4-dichlorophenyl)-4-propyl-2-(1,2,4-triazolylmethyl)-1,3-dioxolane
(+-)-1-[2-(2,4-dichlorophenyl)-4-propyl-1,3-dioxolan-2-yl-methyl]-1H-1,2,4-triazole
1-(2-(2,4-Dichlorophenyl)-4-propyl-1,3-dioxolan-2-yl)methyl-1H-1,2,4-triazole
1H-1,2,4-Triazole, 1-((2-(2,4-dichlorophenyl)-4-propyl-1,3-dioxolan-2-yl)methyl)-
Wocosin 50TK
Bamper 25EC
CAS-60207-90-1
Aidol SW 900
Propiconizole
Propyconazol
1-[2-(2,4-dichlorophenyl)-4-propyl-1,3-dioxolan-2-ylmethyl]-1H-1,2,4-triazole
Propiconazole solution
AC1L29FX
AC1Q2V5A
AC1Q2V5B
AC1Q3N0A
Oprea1_008846
Oprea1_352194
SCHEMBL21081
5-26-01-00205 (Beilstein Handbook Reference)
MLS000525333
DTXSID8024280
Propiconazole, analytical standard
HMS1607I03
HMS2351B22
Tox21_201469
Tox21_300859
BDBM50295562
MFCD00055299
AKOS000582963
AKOS021983464
API0003950
MCULE-6014167945
NCGC00163741-01
NCGC00163741-02
NCGC00163741-03
NCGC00163741-04
NCGC00163741-05
NCGC00163741-06
NCGC00163741-07
NCGC00254762-01
NCGC00259020-01
75881-82-2
AN-39486
AS-12670
BAS 00654744
SC-18416
SMR000122207
ST020560
Propiconazole 10 microg/mL in Cyclohexane
LS-155947
Propiconazole 10 microg/mL in Acetonitrile
Propiconazole 100 microg/mL in Cyclohexane
FT-0630720
Propiconazole 100 microg/mL in Acetonitrile
1-((2-(2,4-dichlorophenyl)-4-propyl-1,3
C11121
Propiconazole, PESTANAL(R), analytical standard
207P901
A832641
I06-0600
1-([2-(2,4-Dichlorophenyl)-4-propyl-1,3-dioxolan-2-yl]methyl)-1H-1,2,4-triazole #
1-[2-(2,4-Dichloro-phenyl)-4-propyl-[1,3]dioxolan-2-ylmethyl]-1H-[1,2,4]triazole
1H-1,2,4-Triazole-1-((2-(2,4-dichlorophenyl)-4-propyl-1,3-dioxolan-2-yl)methyl
Propiconazole solution, 100 ng/muL in methanol, PESTANAL(R), analytical standard

> <TPSA>
49.2

> <TotalAidCount>
1053

> <TotalFormalCharge>
0

> <XLogP>
3.5

> <database>
PubChem Compound

> <matchingCount>
176

> <primaryID>
43234

> <queryTranslation>
7628[CompoundID] OR 244[CompoundID] OR 25059[CompoundID] OR 7618[CompoundID] OR 7641[CompoundID] OR 5053[CompoundID] OR 637511[CompoundID] OR 7714[CompoundID] OR 7762[CompoundID] OR 25429[CompoundID]
OR 8842[CompoundID] OR 7794[CompoundID] OR 637566[CompoundID] OR 7843[CompoundID] OR 174[CompoundID] OR 7870[CompoundID] OR 86102[CompoundID] OR 7888[CompoundID] OR 7896[CompoundID] OR 1140[CompoundID
] OR 8042[CompoundID] OR 8058[CompoundID] OR 8078[CompoundID] OR 8087[CompoundID] OR 8117[CompoundID] OR 8133[CompoundID] OR 115224[CompoundID] OR 8175[CompoundID] OR 8194[CompoundID] OR 445639[Compou
ndID] OR 4944[CompoundID] OR 8294[CompoundID] OR 93541[CompoundID] OR 8360[CompoundID] OR 8363[CompoundID] OR 656612[CompoundID] OR 125098[CompoundID] OR 3352[CompoundID] OR 3303913[CompoundID] OR 648
05[CompoundID] OR 31200[CompoundID] OR 1712058[CompoundID] OR 31236[CompoundID] OR 31239[CompoundID] OR 31265[CompoundID] OR 31266[CompoundID] OR 31276[CompoundID] OR 6950273[CompoundID] OR 518659[Com
poundID] OR 14896[CompoundID] OR 14798[CompoundID] OR 14829[CompoundID] OR 14830[CompoundID] OR 8635[CompoundID] OR 23266[CompoundID] OR 4284[CompoundID] OR 8693[CompoundID] OR 22311[CompoundID] OR 87
59[CompoundID] OR 8785[CompoundID] OR 2723810[CompoundID] OR 8857[CompoundID] OR 3893[CompoundID] OR 9936739[CompoundID] OR 516892[CompoundID] OR 5430[CompoundID] OR 9017[CompoundID] OR 15433[Compound
ID] OR 107720[CompoundID] OR 9552081[CompoundID] OR 164825[CompoundID] OR 10275455[CompoundID] OR 16666[CompoundID] OR 9839306[CompoundID] OR 5282227[CompoundID] OR 23676745[CompoundID] OR 32881[Compo
undID] OR 91581[CompoundID] OR 39800[CompoundID] OR 33344[CompoundID] OR 15962220[CompoundID] OR 33528[CompoundID] OR 5365075[CompoundID] OR 62829[CompoundID] OR 162381[CompoundID] OR 517202[CompoundI
D] OR 6433353[CompoundID] OR 2730[CompoundID] OR 5372405[CompoundID] OR 36081[CompoundID] OR 3120[CompoundID] OR 3017[CompoundID] OR 2969[CompoundID] OR 18827[CompoundID] OR 19518[CompoundID] OR 19658
[CompoundID] OR 38283[CompoundID] OR 2758[CompoundID] OR 10112[CompoundID] OR 10340[CompoundID] OR 712[CompoundID] OR 5794[CompoundID] OR 3347[CompoundID] OR 104150[CompoundID] OR 2912[CompoundID] OR
2450[CompoundID] OR 40326[CompoundID] OR 40585[CompoundID] OR 517055[CompoundID] OR 10913[CompoundID] OR 108242[CompoundID] OR 62097[CompoundID] OR 41679[CompoundID] OR 54680676[CompoundID] OR 62118[C
ompoundID] OR 753[CompoundID] OR 1030[CompoundID] OR 23673837[CompoundID] OR 54678504[CompoundID] OR 11442[CompoundID] OR 11463[CompoundID] OR 22230[CompoundID] OR 440917[CompoundID] OR 6054[CompoundI
D] OR 43234[CompoundID] OR 22629[CompoundID] OR 3039[CompoundID] OR 2735067[CompoundID] OR 6144[CompoundID] OR 702[CompoundID] OR 284[CompoundID] OR 176[CompoundID] OR 91688[CompoundID] OR 22947[Compo
undID] OR 47445[CompoundID] OR 1711973[CompoundID] OR 243[CompoundID] OR 10342051[CompoundID] OR 5281875[CompoundID] OR 3776[CompoundID] OR 6224[CompoundID] OR 104926[CompoundID] OR 8755[CompoundID] O
R 338[CompoundID] OR 123622[CompoundID] OR 23954[CompoundID] OR 6334[CompoundID] OR 2537[CompoundID] OR 24261[CompoundID] OR 23665760[CompoundID] OR 83975[CompoundID] OR 784[CompoundID] OR 24437[Compo
undID] OR 5360315[CompoundID] OR 311[CompoundID] OR 6549[CompoundID] OR 107689[CompoundID] OR 17100[CompoundID] OR 24976875[CompoundID] OR 6654[CompoundID] OR 71245[CompoundID] OR 6442842[CompoundID]
OR 62334[CompoundID] OR 54698175[CompoundID] OR 6328154[CompoundID] OR 24762[CompoundID] OR 440950[CompoundID] OR 7017[CompoundID] OR 5281873[CompoundID] OR 323[CompoundID] OR 5281167[CompoundID] OR 7
175[CompoundID] OR 7292[CompoundID] OR 6335613[CompoundID] OR 7456[CompoundID] OR 7462[CompoundID]

> <resultIndex>
63

> <resultRange>
1-176

> <textQuery>
7628,244,25059,7618,7641,5053,637511,7714,7762,25429,8842,7794,637566,7843,174,7870,86102,7888,7896,1140,8042,8058,8078,8087,8117,8133,115224,8175,8194,445639,4944,8294,93541,8360,8363,656612,125098,3
352,3303913,64805,31200,1712058,31236,31239,31265,31266,31276,6950273,518659,14896,14798,14829,14830,8635,23266,4284,8693,22311,8759,8785,2723810,8857,3893,9936739,516892,5430,9017,15433,107720,955208
1,164825,10275455,16666,9839306,5282227,23676745,32881,91581,39800,33344,15962220,33528,5365075,62829,162381,517202,6433353,2730,5372405,36081,3120,3017,2969,18827,19518,19658,38283,2758,10112,10340,7
12,5794,3347,104150,2912,2450,40326,40585,517055,10913,108242,62097,41679,54680676,62118,753,1030,23673837,54678504,11442,11463,22230,440917,6054,43234,22629,3039,2735067,6144,702,284,176,91688,22947,
47445,1711973,243,10342051,5281875,3776,6224,104926,8755,338,123622,23954,6334,2537,24261,23665760,83975,784,24437,5360315,311,6549,107689,17100,24976875,6654,71245,6442842,62334,54698175,6328154,2476
2,440950,7017,5281873,323,5281167,7175,7292,6335613,7456,7462

$$$$
41,679
  SciTegic10191915303D

 12 12  0  0  0  0            999 V2000
   -3.6510   -0.5130   -0.1030 Cl  0  0
   -1.9480   -0.2050   -0.0590 C   0  0
   -0.8090   -1.4550    0.0030 S   0  0
    0.4730   -0.3500    0.0170 N   0  0
    0.0400    0.9840   -0.0250 C   0  0
    0.7850    1.9370   -0.0240 O   0  0
   -1.4210    1.0290   -0.0710 C   0  0
    1.8690   -0.7720    0.0690 C   0  0
   -1.9920    1.9460   -0.1090 H   0  0
    1.9170   -1.8590    0.1370 H   0  0
    2.4000   -0.3800   -0.7980 H   0  0
    2.3400   -0.3620    0.9620 H   0  0
  1  2  1  0
  2  3  1  0
  2  7  2  0
  3  4  1  0
  4  5  1  0
  4  8  1  0
  5  6  2  0
  5  7  1  0
  7  9  1  0
  8 10  1  0
  8 11  1  0
  8 12  1  0
M  END
> <Name>
41,679

> <OBJECTID>
9223372311736025099

> <ActiveAidCount>
1

> <AtomChiralCount>
0

> <AtomChiralDefCount>
0

> <AtomChiralUndefCount>
0

> <BondChiralCount>
0

> <BondChiralDefCount>
0

> <BondChiralUndefCount>
0

> <CID>
41679

> <CanonicalSmiles>
CN1C(=O)C=CS1.CN1C(=O)C=C(S1)Cl

> <Complexity>
277

> <CovalentUnitCount>
2

> <CreateDate>
2005/08/08 00:00

> <HeavyAtomCount>
15

> <HydrogenBondAcceptorCount>
4

> <HydrogenBondDonorCount>
0

> <IUPACName>
5-chloro-2-methyl-1,2-thiazol-3-one;2-methyl-1,2-thiazol-3-one

> <InChI>
InChI=1S/C4H4ClNOS.C4H5NOS/c1-6-4(7)2-3(5)8-6;1-5-4(6)2-3-7-5/h2H,1H3;2-3H,1H3

> <InChIKey>
QYYMDNHUJFIDDQ-UHFFFAOYSA-N

> <IsomericSmiles>
CN1C(=O)C=CS1.CN1C(=O)C=C(S1)Cl

> <IsotopeAtomCount>
0

> <MeSHHeading>
Kathon 886

> <MeSHTerm>
Kathon WT
Kathon 886 biocide
Kathon biocide
Kathon 886
MBC-215
Kathon CG
MBC 215

> <MolecularFormula>
C8H9ClN2O2S2

> <MolecularWeight>
264.8

> <PharmAction>
Chemical Actions and Uses
Noxae
Mutagens
Toxic Actions

> <RotatableBondCount>
0

> <Smiles>
CN1C(=O)C=CS1.ClC2=CC(=O)N(C)S2

> <SourceCategory>
Chemical Vendors
Research and Development
Curation Efforts
Legacy Depositors
Subscription Services
Governmental Organizations
Journal Publishers

> <Synonym>
55965-84-9
Kathon 886
Kathon biocide
Kathon CG
Bio-Perge
Kathon LX
Kathon WT
Zonen F
ProClin 300
Microcide III
Somacide RS
Legend MK
Kathon 886MW
Kathon CG/ICP II
Slaoff 360
Kathon 886 W
Kathon RH 886
2-Methylisothiazol-3(2H)-one compound with 5-chloro-2-methylisothiazol-3(2H)-one(14%in H2O)
MBC 215
Tret-O-Lite XC 215
CCRIS 4652
KKM 43
EPA Pesticide Chemical Code 107103
UNII-15O9QS218W
15O9QS218W
2-Methylisothiazol-3(2H)-one 5-chloro-2-methylisothiazol-3(2H)-one (1:1)
3(2H)-Isothiazolone, 5-chloro-2-methyl-, mixt. with 2-methyl-3(2H)-isothiazolone
AK128362
5-Chloro-2-methyl-3(2H)-isothiazolone mixt. with 2-methyl-3(2H)-isothiazolone
5-Chloro-2-methyl-3(2H)-isothiazolone with 2-methyl-3(2H)-isothiazolone
2-Methylisothiazol-3(2H)-one compound with 5-chloro-2-methylisothiazol-3(2H)-one (1:1)
Isothiazolinone chloride
C8H9ClN2O2S2
SCHEMBL348332
AC1L269P
CHEMBL108095
QYYMDNHUJFIDDQ-UHFFFAOYSA-N
KS-00000R9C
8175AB
MFCD01716911
AKOS016842708
CS-W018768
AN-40251
LS-86321
AX8248603
ST2417098
965K849
5-chloro-2-methyl-isothiazol-3-one; 2-methylisothiazol-3-one
5-chloro-2-methyl-1,2-thiazol-3-one; 2-methyl-1,2-thiazol-3-one
2-Methylisothiazol-3(2H)-one 5-chloro-2-Methylisothiazol-3(2H)-one
2-Methylisothiazol-3(2H)-one 5-chloro-2-methylisothiazol-3(2H)-one (1:1) 14% in water
2-Methylisothiazol-3(2H)-one compound with 5-chloro-2-methylisothiazol-3(2H)-one (14% in H2O)
3(2H)-Isothiazolone, 5-chloro-2-methyl-, mixt. with2-methyl-3(2H)-isothiazoloneOTHER CA INDEX NAMES:3(2H)-Isothiazolone, 2-methyl-, mixt. contg.

> <TPSA>
91.2

> <TotalAidCount>
3

> <TotalFormalCharge>
0

> <database>
PubChem Compound

> <matchingCount>
176

> <primaryID>
41679

> <queryTranslation>
7628[CompoundID] OR 244[CompoundID] OR 25059[CompoundID] OR 7618[CompoundID] OR 7641[CompoundID] OR 5053[CompoundID] OR 637511[CompoundID] OR 7714[CompoundID] OR 7762[CompoundID] OR 25429[CompoundID]
OR 8842[CompoundID] OR 7794[CompoundID] OR 637566[CompoundID] OR 7843[CompoundID] OR 174[CompoundID] OR 7870[CompoundID] OR 86102[CompoundID] OR 7888[CompoundID] OR 7896[CompoundID] OR 1140[CompoundID
] OR 8042[CompoundID] OR 8058[CompoundID] OR 8078[CompoundID] OR 8087[CompoundID] OR 8117[CompoundID] OR 8133[CompoundID] OR 115224[CompoundID] OR 8175[CompoundID] OR 8194[CompoundID] OR 445639[Compou
ndID] OR 4944[CompoundID] OR 8294[CompoundID] OR 93541[CompoundID] OR 8360[CompoundID] OR 8363[CompoundID] OR 656612[CompoundID] OR 125098[CompoundID] OR 3352[CompoundID] OR 3303913[CompoundID] OR 648
05[CompoundID] OR 31200[CompoundID] OR 1712058[CompoundID] OR 31236[CompoundID] OR 31239[CompoundID] OR 31265[CompoundID] OR 31266[CompoundID] OR 31276[CompoundID] OR 6950273[CompoundID] OR 518659[Com
poundID] OR 14896[CompoundID] OR 14798[CompoundID] OR 14829[CompoundID] OR 14830[CompoundID] OR 8635[CompoundID] OR 23266[CompoundID] OR 4284[CompoundID] OR 8693[CompoundID] OR 22311[CompoundID] OR 87
59[CompoundID] OR 8785[CompoundID] OR 2723810[CompoundID] OR 8857[CompoundID] OR 3893[CompoundID] OR 9936739[CompoundID] OR 516892[CompoundID] OR 5430[CompoundID] OR 9017[CompoundID] OR 15433[Compound
ID] OR 107720[CompoundID] OR 9552081[CompoundID] OR 164825[CompoundID] OR 10275455[CompoundID] OR 16666[CompoundID] OR 9839306[CompoundID] OR 5282227[CompoundID] OR 23676745[CompoundID] OR 32881[Compo
undID] OR 91581[CompoundID] OR 39800[CompoundID] OR 33344[CompoundID] OR 15962220[CompoundID] OR 33528[CompoundID] OR 5365075[CompoundID] OR 62829[CompoundID] OR 162381[CompoundID] OR 517202[CompoundI
D] OR 6433353[CompoundID] OR 2730[CompoundID] OR 5372405[CompoundID] OR 36081[CompoundID] OR 3120[CompoundID] OR 3017[CompoundID] OR 2969[CompoundID] OR 18827[CompoundID] OR 19518[CompoundID] OR 19658
[CompoundID] OR 38283[CompoundID] OR 2758[CompoundID] OR 10112[CompoundID] OR 10340[CompoundID] OR 712[CompoundID] OR 5794[CompoundID] OR 3347[CompoundID] OR 104150[CompoundID] OR 2912[CompoundID] OR
2450[CompoundID] OR 40326[CompoundID] OR 40585[CompoundID] OR 517055[CompoundID] OR 10913[CompoundID] OR 108242[CompoundID] OR 62097[CompoundID] OR 41679[CompoundID] OR 54680676[CompoundID] OR 62118[C
ompoundID] OR 753[CompoundID] OR 1030[CompoundID] OR 23673837[CompoundID] OR 54678504[CompoundID] OR 11442[CompoundID] OR 11463[CompoundID] OR 22230[CompoundID] OR 440917[CompoundID] OR 6054[CompoundI
D] OR 43234[CompoundID] OR 22629[CompoundID] OR 3039[CompoundID] OR 2735067[CompoundID] OR 6144[CompoundID] OR 702[CompoundID] OR 284[CompoundID] OR 176[CompoundID] OR 91688[CompoundID] OR 22947[Compo
undID] OR 47445[CompoundID] OR 1711973[CompoundID] OR 243[CompoundID] OR 10342051[CompoundID] OR 5281875[CompoundID] OR 3776[CompoundID] OR 6224[CompoundID] OR 104926[CompoundID] OR 8755[CompoundID] O
R 338[CompoundID] OR 123622[CompoundID] OR 23954[CompoundID] OR 6334[CompoundID] OR 2537[CompoundID] OR 24261[CompoundID] OR 23665760[CompoundID] OR 83975[CompoundID] OR 784[CompoundID] OR 24437[Compo
undID] OR 5360315[CompoundID] OR 311[CompoundID] OR 6549[CompoundID] OR 107689[CompoundID] OR 17100[CompoundID] OR 24976875[CompoundID] OR 6654[CompoundID] OR 71245[CompoundID] OR 6442842[CompoundID]
OR 62334[CompoundID] OR 54698175[CompoundID] OR 6328154[CompoundID] OR 24762[CompoundID] OR 440950[CompoundID] OR 7017[CompoundID] OR 5281873[CompoundID] OR 323[CompoundID] OR 5281167[CompoundID] OR 7
175[CompoundID] OR 7292[CompoundID] OR 6335613[CompoundID] OR 7456[CompoundID] OR 7462[CompoundID]

> <resultIndex>
64

> <resultRange>
1-176

> <textQuery>
7628,244,25059,7618,7641,5053,637511,7714,7762,25429,8842,7794,637566,7843,174,7870,86102,7888,7896,1140,8042,8058,8078,8087,8117,8133,115224,8175,8194,445639,4944,8294,93541,8360,8363,656612,125098,3
352,3303913,64805,31200,1712058,31236,31239,31265,31266,31276,6950273,518659,14896,14798,14829,14830,8635,23266,4284,8693,22311,8759,8785,2723810,8857,3893,9936739,516892,5430,9017,15433,107720,955208
1,164825,10275455,16666,9839306,5282227,23676745,32881,91581,39800,33344,15962220,33528,5365075,62829,162381,517202,6433353,2730,5372405,36081,3120,3017,2969,18827,19518,19658,38283,2758,10112,10340,7
12,5794,3347,104150,2912,2450,40326,40585,517055,10913,108242,62097,41679,54680676,62118,753,1030,23673837,54678504,11442,11463,22230,440917,6054,43234,22629,3039,2735067,6144,702,284,176,91688,22947,
47445,1711973,243,10342051,5281875,3776,6224,104926,8755,338,123622,23954,6334,2537,24261,23665760,83975,784,24437,5360315,311,6549,107689,17100,24976875,6654,71245,6442842,62334,54698175,6328154,2476
2,440950,7017,5281873,323,5281167,7175,7292,6335613,7456,7462

$$$$
40,585
  SciTegic10191915303D

 47 49  0  0  1  0            999 V2000
    1.8050    6.8120   -1.2750 Br  0  0
    0.6130    6.5760    1.8140 Br  0  0
    2.0040    0.6700   -0.0800 O   0  0
    2.9930    1.8220    1.5680 O   0  0
   -2.9470   -2.0280    1.3890 O   0  0
    3.5400   -1.6380    1.8370 N   0  0
    2.4160    3.2440   -1.6810 C   0  0
    3.3330    2.5800   -0.6670 C   0  0  1  0  0  0
    3.0830    4.0740   -0.5970 C   0  0  2  0  0  0
    2.7620    1.6550    0.3930 C   0  0
    2.2590    4.6640    0.5350 C   0  0
    0.9140    2.9890   -1.5870 C   0  0
    2.9410    3.3980   -3.1030 C   0  0
    1.5420   -0.1970    0.9450 C   0  0  1  0  0  0
    1.6490    5.8490    0.3740 C   0  0
    0.4180   -1.0200    0.4290 C   0  0
   -0.7690   -1.1390    1.1750 C   0  0
    2.6560   -1.0000    1.4420 C   0  0
   -1.8350   -1.9170    0.6900 C   0  0
    0.5380   -1.6820   -0.8060 C   0  0
   -1.7100   -2.5770   -0.5460 C   0  0
   -0.5260   -2.4600   -1.2930 C   0  0
   -3.5640   -3.1930    1.3890 C   0  0
   -4.9690   -3.2470    1.3890 C   0  0
   -2.8200   -4.3860    1.3890 C   0  0
   -5.6280   -4.4890    1.3890 C   0  0
   -3.4770   -5.6280    1.3890 C   0  0
   -4.8820   -5.6800    1.3890 C   0  0
    4.3160    2.2820   -1.0320 H   0  0
    3.9110    4.7080   -0.9180 H   0  0
    2.1140    4.1950    1.4970 H   0  0
    0.5800    2.9040   -0.5530 H   0  0
    0.6470    2.0650   -2.1000 H   0  0
    0.3550    3.8020   -2.0510 H   0  0
    2.4510    4.2320   -3.6060 H   0  0
    4.0180    3.5690   -3.0990 H   0  0
    2.7480    2.4970   -3.6850 H   0  0
    1.1800    0.4540    1.7410 H   0  0
   -0.8640   -0.6320    2.1240 H   0  0
    1.4470   -1.5940   -1.3840 H   0  0
   -2.5260   -3.1760   -0.9230 H   0  0
   -0.4330   -2.9670   -2.2410 H   0  0
   -5.5460   -2.3340    1.3890 H   0  0
   -1.7400   -4.3510    1.3890 H   0  0
   -6.7070   -4.5280    1.3890 H   0  0
   -2.9030   -6.5430    1.3890 H   0  0
   -5.3870   -6.6340    1.3890 H   0  0
  1 15  1  0
  2 15  1  0
  3 10  1  0
  3 14  1  0
  4 10  2  0
  5 19  1  0
  5 23  1  0
  6 18  3  0
  7  8  1  0
  7  9  1  0
  7 12  1  0
  7 13  1  0
  8  9  1  0
  8 10  1  0
  9 11  1  0
 11 15  2  0
 14 16  1  0
 14 18  1  0
 16 17  2  0
 16 20  1  0
 17 19  1  0
 19 21  2  0
 20 22  2  0
 21 22  1  0
 23 24  2  0
 23 25  1  0
 24 26  1  0
 25 27  2  0
 26 28  2  0
 27 28  1  0
  8 29  1  0
  9 30  1  0
 11 31  1  0
 12 32  1  0
 12 33  1  0
 12 34  1  0
 13 35  1  0
 13 36  1  0
 13 37  1  0
 14 38  1  0
 17 39  1  0
 20 40  1  0
 21 41  1  0
 22 42  1  0
 24 43  1  0
 25 44  1  0
 26 45  1  0
 27 46  1  0
 28 47  1  0
M  END
> <Name>
40,585

> <OBJECTID>
9223372316030992395

> <ActiveAidCount>
24

> <AtomChiralCount>
3

> <AtomChiralDefCount>
3

> <AtomChiralUndefCount>
0

> <BondChiralCount>
0

> <BondChiralDefCount>
0

> <BondChiralUndefCount>
0

> <CID>
40585

> <CanonicalSmiles>
CC1(C(C1C(=O)OC(C#N)C2=CC(=CC=C2)OC3=CC=CC=C3)C=C(Br)Br)C

> <Complexity>
643

> <CovalentUnitCount>
1

> <CreateDate>
2005/08/08 00:00

> <HeavyAtomCount>
28

> <HydrogenBondAcceptorCount>
4

> <HydrogenBondDonorCount>
0

> <IUPACName>
[(S)-cyano-(3-phenoxyphenyl)methyl] (1R,3R)-3-(2,2-dibromoethenyl)-2,2-dimethylcyclopropane-1-carboxylate

> <InChI>
InChI=1S/C22H19Br2NO3/c1-22(2)17(12-19(23)24)20(22)21(26)28-18(13-25)14-7-6-10-16(11-14)27-15-8-4-3-5-9-15/h3-12,17-18,20H,1-2H3/t17-,18+,20-/m0/s1

> <InChIKey>
OWZREIFADZCYQD-NSHGMRRFSA-N

> <IsomericSmiles>
CC1([C@H]([C@H]1C(=O)O[C@H](C#N)C2=CC(=CC=C2)OC3=CC=CC=C3)C=C(Br)Br)C

> <IsotopeAtomCount>
0

> <MeSHHeading>
decamethrin

> <MeSHTerm>
OMS 1998
deltamethrin
decamethrin, (1R-(1alpha(S*),3beta))-isomer
K-othrin
decamethrin, (1R-(1alpha(R*),3beta))-isomer
alpha-cyano-3-phenoxybenzyl (1R,3R)-cis-3-(2,2-dibromovinyl)-2,2-dimethylcyclopropanecarboxylate
NRDC 161
Decis
Difexon
decamethrin, (1S-(1alpha(S*),3alpha))-isomer
decamethrin
decamethrin, (1S-(1alpha(R*),3alpha))-isomer
Butox
decamethrin, (1R-(1alpha(R*),3alpha))-isomer

> <MolecularFormula>
C22H19Br2NO3

> <MolecularWeight>
505.2

> <PharmAction>
Chemical Actions and Uses
Agrochemicals
Toxic Actions
Specialty Uses of Chemicals
Insecticides
Pesticides

> <RotatableBondCount>
7

> <Smiles>
Br\C(=C\[C@@H]([C@H]1C(=O)O[C@H](C#N)c2cccc(c2)Oc3ccccc3)C1(C)C)\Br

> <SourceCategory>
Legacy Depositors
Chemical Vendors
Curation Efforts
Governmental Organizations
NIH Initiatives
Subscription Services
Research and Development
Journal Publishers

> <Synonym>
deltamethrin
Decamethrin
Decamethrine
Butox
Decis
DeltaGard
K-Othrin
52918-63-5
Deltamethrine
Crackdown
Deltagran
Esbecythrin
Cislin
Suspend
Zorcis
New Musigie
K-Othrine
K-Obiol
Phagase 1
Nrdc 161
Glossinex 200
Deltacide
Stricker
Butoss
Zodiac
Decis 0.5ULV
Decis 1.5ULV
Decis 2.5ULV
Deltametryna [Polish]
Dekametrin (Hungarian)
Deltamethrin [BSI:ISO]
Deltamethrine [ISO-French]
UNII-2JTS8R821G
CCRIS 3704
HSDB 6604
RUP 987
IPO 8831
OMS 1988
EINECS 258-256-6
FMC 45498
EPA Pesticide Chemical Code 978051
RU 22974
AI3-29279
2JTS8R821G
CHEBI:4388
Deltamethrin (BAN)
Deltamethrin [BAN]
(S)-alpha-Cyano-3-phenoxybenzyl (1R)-cis-3-(2,2-dibromovinyl)-2,2-dimethylcyclopropanecarboxylate
DSSTox_CID_381
DSSTox_RID_75555
Dekametrin
DSSTox_GSID_20381
(1R-(1alpha(S*),3alpha))-Cyano(3-phenoxyphenyl)methyl 3-(2,2-dibromoethenyl)-2,2-dimethylcyclopropanecarboxylate
(S)-alpha-Cyano-3-phenoxybenzyl (1R,3R)-3-(2,2-dibromovinyl)-2,2-dimethyl-cyclopropan-1-carboxylate
(S)-alpha-Cyano-3-phenoxybenzyl-(1R)-cis-3-(2,2-dibromovinyl)-2,2-dimethyl-cyclopropane carboxyate
3-(2,2-Dibromoethenyl)-2,2-dimethylcyclopropanecarboxylic acid, cyano(3-phenoxy-phenyl)-, methyl ester
Deltamethrin, analytical standard
Deltametryna
(S)-alpha-Cyano-3-phenoxybenzyl (1R,3S)-3-(2,2-dibromovinyl)-2,2-dimethylcyclopropanecarboxylate
(S)-cyano(3-phenoxyphenyl)methyl (1R,3R)-3-(2,2-dibromoethenyl)-2,2-dimethylcyclopropane-1-carboxylate
(S)-cyano(3-phenoxyphenyl)methyl (1R,3R)-3-(2,2-dibromoethenyl)-2,2-dimethylcyclopropanecarboxylate
(S)-cyano[3-(phenyloxy)phenyl]methyl (1R,3R)-3-(2,2-dibromoethenyl)-2,2-dimethylcyclopropanecarboxylate
[(S)-cyano-(3-phenoxyphenyl)methyl] (1R,3R)-3-(2,2-dibromoethenyl)-2,2-dimethylcyclopropane-1-carboxylate
alpha-Cyano-3-phenoxybenzyl (1R-(1alpha(S*),3alpha))-3-(2,2-dibromovinyl)-2,2-dimethylcyclopropanecarboxylate
Cyclopropanecarboxylic acid, 3-(2,2-dibromoethenyl)-2,2-dimethyl-, cyano(3-phenoxyphenyl)methyl ester, (1R-(1-alpha(S*),3-alpha))-
CAS-52918-63-5
Cyclopropanecarboxylic acid, 3-(2,2-dibromoethenyl)-2,2-dimethyl-, (S)-cyano(3-phenoxyphenyl)methyl ester, (1R,3R)-
Striker
Othrin
Delta-methrin
Deltamet hrin
Deltamethrin solution
Deltamethrin Formulations
Deltamethrin, >=98%
250MG - Deltamethrin
Scalibor [veterinary] (TN)
SCHEMBL22196
CHEMBL1593566
DTXSID8020381
CTK8F9016
OWZREIFADZCYQD-NSHGMRRFSA-
AC1L2427
ZINC1532094
Tox21_201432
Tox21_303009
AKOS015895185
API0002244
KS-5078
LS-7298
NCGC00163904-01
NCGC00163904-02
NCGC00163904-03
NCGC00256465-01
NCGC00258983-01
AJ-26747
AN-14468
CJ-24131
Deltamethrin 10 microg/mL in Cyclohexane
Deltamethrin 100 microg/mL in Cyclohexane
529-EP2274983A1
529-EP2275422A1
529-EP2280009A1
529-EP2292608A1
529-EP2298076A1
529-EP2298077A1
529-EP2301353A1
529-EP2305031A1
529-EP2305034A1
529-EP2305035A1
529-EP2305662A1
529-EP2308857A1
529-EP2308858A1
529-EP2311816A1
529-EP2311817A1
529-EP2314583A1
D4775
C10985
D07785
Deltamethrin, PESTANAL(R), analytical standard
918M635
A829307
Deltamethrin, certified reference material, TraceCERT(R)
[(S)-cyano-[3-(phenoxy)phenyl]methyl] (1R,3R)-3-(2,2-dibromoethenyl)-2,2-dimethy
Cyano-m-phenoxybenzyl (1R,3R)-3-(2,2-dibromovi nyl)-2,2-dimethylcyclopropanecarboxylate
Deltamethrin solution, 100 ng/muL in cyclohexane, PESTANAL(R), analytical standard
(1R,3R)-((S)-cyano(3-phenoxyphenyl)methyl) 3-(2,2-dibromovinyl)-2,2-dimethylcyclopropanecarboxylate
(1R,3R)-3-(2,2-dibromoethenyl)-2,2-dimethyl-1-cyclopropanecarboxylic acid [(S)-cyano-(3-phenoxyphenyl)methyl] ester
(1R,3R)-3-(2,2-dibromovinyl)-2,2-dimethylcyclopropane carboxylic acid, (S)-alpha-cy ano-3-phenoxybenzyl ester
(1R,3R)-3-(2,2-Dibromovinyl)-2,2-dimethylcyclopropanecarboxylic Acid (S)-alpha-Cyano-3-phenoxybenzyl Ester
(1R-(1alpha(S*),3alpha))-3-(2,2-dibromoethenyl)-2,2-dimethyl-, cyano(3-phenoxyphenyl)methyl cyclopropanecarboxylate
(s)-alpha-cyano-3-phenoxybenzyl (1r,3r)-3-(2,2-dibromovinyl)-2,2-dimethylcyclopropanecarboxylate
[(S)-cyano-(3-phenoxyphenyl)methyl] (1R,3R)-3-(2,2-dibromovinyl)-2,2-dimethyl-cyclopropanecarboxylate
[(S)-cyano-(3-phenoxyphenyl)methyl] (1R,3R)-3-[2,2-bis(bromanyl)ethenyl]-2,2-dimethyl-cyclopropane-1-carboxylate
3-(2,2-Dibromoethenyl)-2,2-dimethylcyclopropanecarboxylic acid cyano(3-phenoxyphenyl)methyl ester
Cyclopropanecarboxylic acid, 3-(2,2-dibromoethenyl)-2,2-dimethyl-, cyano(3-phenoxyphenyl)methyl ester, (1R-(1alpha(s*),3alpha))-
Cyclopropanecarboxylic acid, 3-(2,2-dibromoethenyl)-2,2-dimethyl-,(S)-cyano(3-phenoxyphenyl)methyl ester, (1R,3R)-
InChI=1/C22H19Br2NO3/c1-22(2)17(12-19(23)24)20(22)21(26)28-18(13-25)14-7-6-10-16(11-14)27-15-8-4-3-5-9-15/h3-12,17-18,20H,1-2H3/t17-,18+,20-/m0/s1

> <TPSA>
59.3

> <TotalAidCount>
411

> <TotalFormalCharge>
0

> <XLogP>
6.2

> <database>
PubChem Compound

> <matchingCount>
176

> <primaryID>
40585

> <queryTranslation>
7628[CompoundID] OR 244[CompoundID] OR 25059[CompoundID] OR 7618[CompoundID] OR 7641[CompoundID] OR 5053[CompoundID] OR 637511[CompoundID] OR 7714[CompoundID] OR 7762[CompoundID] OR 25429[CompoundID]
OR 8842[CompoundID] OR 7794[CompoundID] OR 637566[CompoundID] OR 7843[CompoundID] OR 174[CompoundID] OR 7870[CompoundID] OR 86102[CompoundID] OR 7888[CompoundID] OR 7896[CompoundID] OR 1140[CompoundID
] OR 8042[CompoundID] OR 8058[CompoundID] OR 8078[CompoundID] OR 8087[CompoundID] OR 8117[CompoundID] OR 8133[CompoundID] OR 115224[CompoundID] OR 8175[CompoundID] OR 8194[CompoundID] OR 445639[Compou
ndID] OR 4944[CompoundID] OR 8294[CompoundID] OR 93541[CompoundID] OR 8360[CompoundID] OR 8363[CompoundID] OR 656612[CompoundID] OR 125098[CompoundID] OR 3352[CompoundID] OR 3303913[CompoundID] OR 648
05[CompoundID] OR 31200[CompoundID] OR 1712058[CompoundID] OR 31236[CompoundID] OR 31239[CompoundID] OR 31265[CompoundID] OR 31266[CompoundID] OR 31276[CompoundID] OR 6950273[CompoundID] OR 518659[Com
poundID] OR 14896[CompoundID] OR 14798[CompoundID] OR 14829[CompoundID] OR 14830[CompoundID] OR 8635[CompoundID] OR 23266[CompoundID] OR 4284[CompoundID] OR 8693[CompoundID] OR 22311[CompoundID] OR 87
59[CompoundID] OR 8785[CompoundID] OR 2723810[CompoundID] OR 8857[CompoundID] OR 3893[CompoundID] OR 9936739[CompoundID] OR 516892[CompoundID] OR 5430[CompoundID] OR 9017[CompoundID] OR 15433[Compound
ID] OR 107720[CompoundID] OR 9552081[CompoundID] OR 164825[CompoundID] OR 10275455[CompoundID] OR 16666[CompoundID] OR 9839306[CompoundID] OR 5282227[CompoundID] OR 23676745[CompoundID] OR 32881[Compo
undID] OR 91581[CompoundID] OR 39800[CompoundID] OR 33344[CompoundID] OR 15962220[CompoundID] OR 33528[CompoundID] OR 5365075[CompoundID] OR 62829[CompoundID] OR 162381[CompoundID] OR 517202[CompoundI
D] OR 6433353[CompoundID] OR 2730[CompoundID] OR 5372405[CompoundID] OR 36081[CompoundID] OR 3120[CompoundID] OR 3017[CompoundID] OR 2969[CompoundID] OR 18827[CompoundID] OR 19518[CompoundID] OR 19658
[CompoundID] OR 38283[CompoundID] OR 2758[CompoundID] OR 10112[CompoundID] OR 10340[CompoundID] OR 712[CompoundID] OR 5794[CompoundID] OR 3347[CompoundID] OR 104150[CompoundID] OR 2912[CompoundID] OR
2450[CompoundID] OR 40326[CompoundID] OR 40585[CompoundID] OR 517055[CompoundID] OR 10913[CompoundID] OR 108242[CompoundID] OR 62097[CompoundID] OR 41679[CompoundID] OR 54680676[CompoundID] OR 62118[C
ompoundID] OR 753[CompoundID] OR 1030[CompoundID] OR 23673837[CompoundID] OR 54678504[CompoundID] OR 11442[CompoundID] OR 11463[CompoundID] OR 22230[CompoundID] OR 440917[CompoundID] OR 6054[CompoundI
D] OR 43234[CompoundID] OR 22629[CompoundID] OR 3039[CompoundID] OR 2735067[CompoundID] OR 6144[CompoundID] OR 702[CompoundID] OR 284[CompoundID] OR 176[CompoundID] OR 91688[CompoundID] OR 22947[Compo
undID] OR 47445[CompoundID] OR 1711973[CompoundID] OR 243[CompoundID] OR 10342051[CompoundID] OR 5281875[CompoundID] OR 3776[CompoundID] OR 6224[CompoundID] OR 104926[CompoundID] OR 8755[CompoundID] O
R 338[CompoundID] OR 123622[CompoundID] OR 23954[CompoundID] OR 6334[CompoundID] OR 2537[CompoundID] OR 24261[CompoundID] OR 23665760[CompoundID] OR 83975[CompoundID] OR 784[CompoundID] OR 24437[Compo
undID] OR 5360315[CompoundID] OR 311[CompoundID] OR 6549[CompoundID] OR 107689[CompoundID] OR 17100[CompoundID] OR 24976875[CompoundID] OR 6654[CompoundID] OR 71245[CompoundID] OR 6442842[CompoundID]
OR 62334[CompoundID] OR 54698175[CompoundID] OR 6328154[CompoundID] OR 24762[CompoundID] OR 440950[CompoundID] OR 7017[CompoundID] OR 5281873[CompoundID] OR 323[CompoundID] OR 5281167[CompoundID] OR 7
175[CompoundID] OR 7292[CompoundID] OR 6335613[CompoundID] OR 7456[CompoundID] OR 7462[CompoundID]

> <resultIndex>
65

> <resultRange>
1-176

> <textQuery>
7628,244,25059,7618,7641,5053,637511,7714,7762,25429,8842,7794,637566,7843,174,7870,86102,7888,7896,1140,8042,8058,8078,8087,8117,8133,115224,8175,8194,445639,4944,8294,93541,8360,8363,656612,125098,3
352,3303913,64805,31200,1712058,31236,31239,31265,31266,31276,6950273,518659,14896,14798,14829,14830,8635,23266,4284,8693,22311,8759,8785,2723810,8857,3893,9936739,516892,5430,9017,15433,107720,955208
1,164825,10275455,16666,9839306,5282227,23676745,32881,91581,39800,33344,15962220,33528,5365075,62829,162381,517202,6433353,2730,5372405,36081,3120,3017,2969,18827,19518,19658,38283,2758,10112,10340,7
12,5794,3347,104150,2912,2450,40326,40585,517055,10913,108242,62097,41679,54680676,62118,753,1030,23673837,54678504,11442,11463,22230,440917,6054,43234,22629,3039,2735067,6144,702,284,176,91688,22947,
47445,1711973,243,10342051,5281875,3776,6224,104926,8755,338,123622,23954,6334,2537,24261,23665760,83975,784,24437,5360315,311,6549,107689,17100,24976875,6654,71245,6442842,62334,54698175,6328154,2476
2,440950,7017,5281873,323,5281167,7175,7292,6335613,7456,7462

$$$$
40,326
  SciTegic10191915303D

 46 48  0  0  1  0            999 V2000
    4.6950    1.3480    0.4530 Cl  0  0
    4.7810    4.1080   -0.7110 Cl  0  0
   -0.4590    1.8130   -0.4120 O   0  0
   -0.8650    3.4850    1.0230 O   0  0
   -0.1780   -3.7460    0.9370 O   0  0
    1.4300    4.9530   -0.3910 C   0  0
    0.3850    3.9960   -0.9420 C   0  0  3  0  0  0
    1.8550    3.7540   -1.2230 C   0  0  3  0  0  0
   -0.3770    3.0760   -0.0060 C   0  0
    2.5800    2.5900   -0.5720 C   0  0
    1.5310    6.3260   -1.0410 C   0  0
    1.7150    4.9400    1.1090 C   0  0
    3.8930    2.6800   -0.3050 C   0  0
   -1.1820    0.9960    0.4960 C   0  0
   -1.2320   -0.3960   -0.0220 C   0  0
   -0.7110   -2.7640    0.2380 C   0  0
   -0.6640   -1.4450    0.7240 C   0  0
   -1.8480   -0.6680   -1.2560 C   0  0
   -1.3260   -3.0310   -0.9960 C   0  0
   -0.7950   -4.9100    0.9370 C   0  0
   -1.8950   -1.9840   -1.7420 C   0  0
   -2.1990   -4.9650    0.9370 C   0  0
   -0.0510   -6.1040    0.9370 C   0  0
   -2.8590   -6.2070    0.9370 C   0  0
   -0.7090   -7.3460    0.9370 C   0  0
   -2.1130   -7.3980    0.9370 C   0  0
   -0.2050    4.3600   -1.7810 H   0  0
    2.1840    3.9670   -2.2400 H   0  0
    2.1150    1.6560   -0.2930 H   0  0
    2.5270    6.7540   -0.9340 H   0  0
    0.8200    7.0200   -0.5900 H   0  0
    1.3070    6.2660   -2.1060 H   0  0
    2.7110    5.3320    1.3140 H   0  0
    0.9800    5.5390    1.6460 H   0  0
    1.6700    3.9240    1.5020 H   0  0
   -2.1950    1.3910    0.5760 H   0  0
   -0.6640    1.0100    1.4550 H   0  0
   -0.1910   -1.2400    1.6740 H   0  0
   -2.2870    0.1350   -1.8320 H   0  0
   -1.3650   -4.0410   -1.3730 H   0  0
   -2.3690   -2.1910   -2.6920 H   0  0
   -2.7770   -4.0530    0.9370 H   0  0
    1.0290   -6.0680    0.9370 H   0  0
   -3.9380   -6.2460    0.9370 H   0  0
   -0.1350   -8.2620    0.9370 H   0  0
   -2.6190   -8.3520    0.9370 H   0  0
  1 13  1  0
  2 13  1  0
  3  9  1  0
  3 14  1  0
  4  9  2  0
  5 16  1  0
  5 20  1  0
  6  7  1  0
  6  8  1  0
  6 11  1  0
  6 12  1  0
  7  8  1  0
  7  9  1  0
  8 10  1  0
 10 13  2  0
 14 15  1  0
 15 17  2  0
 15 18  1  0
 16 17  1  0
 16 19  2  0
 18 21  2  0
 19 21  1  0
 20 22  2  0
 20 23  1  0
 22 24  1  0
 23 25  2  0
 24 26  2  0
 25 26  1  0
  7 27  1  0
  8 28  1  0
 10 29  1  0
 11 30  1  0
 11 31  1  0
 11 32  1  0
 12 33  1  0
 12 34  1  0
 12 35  1  0
 14 36  1  0
 14 37  1  0
 17 38  1  0
 18 39  1  0
 19 40  1  0
 21 41  1  0
 22 42  1  0
 23 43  1  0
 24 44  1  0
 25 45  1  0
 26 46  1  0
M  END
> <Name>
40,326

> <OBJECTID>
9223372320325959691

> <ActiveAidCount>
15

> <AtomChiralCount>
2

> <AtomChiralDefCount>
0

> <AtomChiralUndefCount>
2

> <BondChiralCount>
0

> <BondChiralDefCount>
0

> <BondChiralUndefCount>
0

> <CID>
40326

> <CanonicalSmiles>
CC1(C(C1C(=O)OCC2=CC(=CC=C2)OC3=CC=CC=C3)C=C(Cl)Cl)C

> <Complexity>
521

> <CovalentUnitCount>
1

> <CreateDate>
2005/03/27 00:00

> <HeavyAtomCount>
26

> <HydrogenBondAcceptorCount>
3

> <HydrogenBondDonorCount>
0

> <IUPACName>
(3-phenoxyphenyl)methyl 3-(2,2-dichloroethenyl)-2,2-dimethylcyclopropane-1-carboxylate

> <InChI>
InChI=1S/C21H20Cl2O3/c1-21(2)17(12-18(22)23)19(21)20(24)25-13-14-7-6-10-16(11-14)26-15-8-4-3-5-9-15/h3-12,17,19H,13H2,1-2H3

> <InChIKey>
RLLPVAHGXHCWKJ-UHFFFAOYSA-N

> <IsomericSmiles>
CC1(C(C1C(=O)OCC2=CC(=CC=C2)OC3=CC=CC=C3)C=C(Cl)Cl)C

> <IsotopeAtomCount>
0

> <MeSHHeading>
Permethrin

> <MeSHTerm>
Nittifor
PP 557
S 3151
NRDC 147
Permethrin, (1R-trans)-Isomer
Permethrin, (trans)-Isomer
trans permethrin
cis permethrin
Permethrin, (1S-trans)-Isomer
FMC-33297
NRDC-147
S3151
trans-permethrin
NIA 33297
Permethrin, (cis-(+-))-Isomer
NRDC-143
PP-557
cis-permethrin
trans-(1RS)-Permethrin
S-3151
PP557
NRDC 143
FMC33297
Permethrin
3-Phenoxybenzyl-(+-)-cis,trans-2,2-dichlorovinyl-2,2-dimethyl-cyclopropylcarboxylic acid, ester
Permethrin, (cis)-Isomer
NIA-33297
NRDC143
Permethrin, (1R-cis)-Isomer
3-Phenoxybenzyl-cis,trans-(1RS)-3-(2,2-dichlorovinyl)-2,2-dimethylcyclopropanecarboxylate
NIA33297
FMC 33297
NRDC147
(m-Phenoxybenzyl)-cis,trans-3-(2,2-dichlorovinyl)-2,2-dimethylcyclopropanecarboxylate
Permethrin, (trans-(+-))-Isomer
cis-(1RS)-permethrin
Permethrin, trans-(1RS)-Isomer
permethrin, cis-(1RS)-isomer
Permethrin, (1S-cis)-Isomer
Elimite
Ambush

> <MolecularFormula>
C21H20Cl2O3

> <MolecularWeight>
391.3

> <PharmAction>
Pesticides
Enzyme Inhibitors
Chemical Actions and Uses
Pharmacologic Actions
Molecular Mechanisms of Pharmacological Action
Agrochemicals
Specialty Uses of Chemicals
Insecticides
Toxic Actions

> <RotatableBondCount>
7

> <Smiles>
Cl\C(=C\C(C1C(=O)OCc2cccc(c2)Oc3ccccc3)C1(C)C)\Cl

> <SourceCategory>
Chemical Vendors
Legacy Depositors
Research and Development
Curation Efforts
Governmental Organizations
NIH Initiatives
Subscription Services
Journal Publishers

> <Synonym>
Permethrin
52645-53-1
Transpermethrin
Ambush
Pounce
1RS,cis-Permethrin
Kudos
1RS-trans-Permethrin
Transpermethrin [ISO]
(+-)-cis-Permethrin
trans-(+-)-Permethrin
NRDC 146
NRDC 148
(+-)-trans-Permethrin
(+-)-cis-Fmc 33297
FMC 35171
Elimite
BRN 4153590
(+)-trans-Permethrin
Permethrine
Permetrina
Acticin
Ambushfog
Chinetrin
Corsair
Dragnet
Ecsumin
Ectiban
Efmethrin
Imperator
Indothrin
Kaleait
Kestrel
Lyclear
Outflank
Perigen
Permasect
Perthrine
Quamlin
Stomoxi
Stomoxin
Stomozan
Coopex
Cosair
Eksmin
Exsmin
Ipitox
Picket
Pramex
Exmin
Expar
Kafil
Kavil
(3-phenoxyphenyl)methyl 3-(2,2-dichloroethenyl)-2,2-dimethylcyclopropane-1-carboxylate
AI3-29296
Anomethrin N
Ridect pour-on
Diffusil H
Insorbcid MP
Stomoxin P
Outflank-stockade
Perigen W
CHEBI:34911
Dragnet FT
Picket G
Permethrin,racemic
Mitin BC
Permanone 80
Permasect-25EC
1RS cis-Permethrin
Kestrel (pesticide)
Antiborer 3768
Bematin 987
Permethrinum [Latin]
Permetrin (Hungarian)
NCGC00159390-02
Permitrene (Hungarian)
Permetrina [Portuguese]
Caswell No. 652BB
DSSTox_CID_2292
Permethrine [ISO-French]
3-phenoxybenzyl 3-(2,2-dichloroethenyl)-2,2-dimethylcyclopropanecarboxylate
3-Phenoxybenzyle (1RS)-cis, trans-3-(2,2-dichlorovinyl)-2,2-dimethylcyclopropane carboxylate
DSSTox_RID_76537
DSSTox_GSID_22292
3-(2,2-Dichloroethenyl)-2,2-dimethylcyclopropane carboxylic acid, (3-phenoxyphenyl) methyl ester
52341-32-9
Cyclopropanecarboxylic acid, 3-(2,2-dichloroethenyl)-2,2-dimethyl-, (3-phenoxyphenyl)methyl ester, cis-(+-)-
Cyclopropanecarboxylic acid, 3-(2,2-dichloroethenyl)-2,2-dimethyl-, (3-phenoxyphenyl)methyl ester, trans-(+-)-
SBP-1513TEC
Permethrin [USAN:INN:BAN]
CCRIS 2001
ICI-PP 557
MP79
NRDC 143
SBP 15131TEC
HSDB 6790
BW-21-Z
Permethrinum
OMS 1821
PerFoam
SBP-1513
Acticin Cream
EINECS 258-067-9
Elimite Cream
Permethrine,c&t
FMC 33297
FMC 41655
NIA 33297
PP 557
Nix Cream Rinse
EPA Pesticide Chemical Code 109701
JF 7065
BRN 2063148
Permethrin 100 microg/mL in Cyclohexane
WL 43479
SMR000778043
AI3-29158
LE 79-519
CAS-52645-53-1
S 3151
S-3151
Cyclopropanecarboxylic acid, 3-(2,2-dichloroethenyl)-2,2-dimethyl-, (3-phenoxyphenyl)methyl ester
Permethrin [ANSI:BSI:ISO]
Permethrn
3-Phenoxybenzyl 2,2-dimethyl-3-(2,2-dichlorovinyl)cyclopropanecarboxylate
m-Phenoxybenzyl 3-(2,2-dichlorovinyl)-2,2-dimethylcyclopropanecarboxylate
(+-)-3-Phenoxybenzyl 3-(2,2-dichlorovinyl)-2,2-dimethylcyclopropanecarboxylate
(3-Phenoxyphenyl)methyl 3-(2,2-dichlorethenyl)-2,2-dimethylcyclopropanecarboxylate
[3-(phenyloxy)phenyl]methyl 3-(2,2-dichloroethenyl)-2,2-dimethylcyclopropanecarboxylate
3-(2,2-Dichloroethenyl)-2,2-dimethylcyclopropanecarboxylic acid (3-phenoxyphenyl)methyl ester
3-Phenoxybenzyl (1RS)-cis-trans-3-(2,2-dichlorovinyl)-2,2-dimethylcyclopropanecarboxylate
3-Phenoxybenzyl (1RS,3RS;1RS,3SR)-3-(2,2-dichlorovinyl)-2,2-dimethylcyclopropanecarboxylate
3-Phenoxybenzyl(+-)-cis, trans-3-(2,2-dichlorovinyl)-2,2-dimethylcyclopropane-1-carboxylate
m-Phenoxybenzyl (+-)-3-(2,2-dichlorovinyl)-2,2-dimethylcyclopropanecarboxylate
m-Phenoxybenzyl (+1)-cis,trans-3-(2,2-dichlorovinyl)-2,2-dimethylcyclopropanecarboxylate
3-(Phenoxyphenyl)methyl (+-)-cis,trans-3-(2,2-dichloroethenyl)-2,2-dimethylcyclopropanecarboxylate
Cyclopropanecarboxylic acid, 3-(2,2-dichloroethenyl)-2,2-dimethyl-, (3-phenoxyphenyl)methyl ester, (1R,3R)-rel-
Cyclopropanecarboxylic acid, 3-(2,2-dichlorovinyl)-2,2-dimethyl-, (3-phenoxyphenyl)methyl ester, (1R-trans)-
Elimite (TN)
AC1Q3FFG
Permethrin (USAN/INN)
Hemoglobin atlanta-coventry
AC1L23IC
CHEMBL1525
SCHEMBL26543
MLS001332525
MLS001332526
Permethrin cis/trans ~ 1:1
Permethrin, analytical standard
3-Phenoxybenzyl 3-(2,2-dichlorovinyl)-2,2-dimethylcyclopropanecarboxylate
DTXSID8022292
SCHEMBL15218274
CTK4J5778
Permethrin, (cis-(+-))-Isomer
RLLPVAHGXHCWKJ-UHFFFAOYSA-N
HMS2232L22
HMS3264N07
HMS3369D10
Pharmakon1600-01504932
(3-Phenoxyphenyl)methyl (+-)cis,trans-3-(2,2-dichloroethenyl)-2,2-dimethylcyclopropanecarboxylate
Cyclopropanecarboxylic acid, 3-(2,2-dichloroethenyl)-2,2-dimethyl-, (3-phenoxyphenyl)methyl ester, (1R,3S)-rel-
Cyclopropanecarboxylic acid, 3-(2,2-dichlorovinyl)-2,2-dimethyl-, 3-phenoxybenzyl ester, (+-)-, (cis,trans)-
HY-B0887
Permethrin, (trans-(+-))-Isomer
Tox21_111627
Tox21_201586
Tox21_300691
BBL005484
MFCD00041809
NSC760105
STL135986
AKOS005746953
CCG-213703
DB04930
KS-5079
MCULE-1256227237
NSC-760105
PST0001290
RL03937
Permethrin 10 microg/mL in Cyclohexane
NCGC00159390-00
NCGC00159390-04
NCGC00159390-05
NCGC00159390-06
NCGC00159390-07
NCGC00159390-08
NCGC00159390-09
NCGC00159390-10
NCGC00159390-11
NCGC00159390-12
NCGC00159390-13
NCGC00254599-01
NCGC00259135-01
(3-Phenoxyphenyl)methyl (+-)-cis,trans-3-(2,2-dichloroethenyl)-2,2-dimethylcyclopropanecarboxylate
52341-33-0
CC-33599
LS-58636
LS-58640
Permethrin (isomers), analytical standard
SC-15902
TL8003462
Total Permethrin 100 microg/mL in Acetone
TR-018667
541-EP2274983A1
541-EP2275422A1
541-EP2280009A1
541-EP2292608A1
541-EP2298076A1
541-EP2298077A1
541-EP2301353A1
541-EP2305031A1
541-EP2305034A1
541-EP2305035A1
541-EP2305658A1
541-EP2305662A1
541-EP2308857A1
541-EP2308858A1
541-EP2311816A1
541-EP2311817A1
541-EP2314583A1
FT-0630656
ST50975270
Permethrin, PESTANAL(R), analytical standard
C14388
D05443
AB00918441_05
645P531
C-21549
J-523915
Permethrin (25:75), EuropePharmacopoeia (EP) Reference Standard
(1RS,3SR)-3-(2,2-dichlorovinyl)-2,2-dimethylcyclo-propanecarboxylate
3-phenoxybenzyl 2-(2,2-dichlorovinyl)3,3-dimethylcyclopropanecarboxylate
(3-phenoxyphenyl)methyl 3-(2,2-dichlorovinyl)-2,2-dimethyl-cyclopropanecarboxylate
(3-phenoxyphenyl)methyl 3-(2,2-dichlorovinyl)-2,2-dimethylcyclopropanecarboxyl ate
3-phenoxybenzyl (1RS)-cis,trans-3-(2,2-dichlorovinyl)-2,2-dimethylcyclopropanecarboxylate
m-phenoxybenzyl 2,2-dimethyl-3-(2',2'-dichlorovinyl)-cyclopropanecarboxylate
Permethrin for system suitability, EuropePharmacopoeia (EP) Reference Standard
93389-07-2
Cyclopropanecarboxylicacid, 3-(2,2-dichloroethenyl)-2,2-dimethyl-, (3-phenoxyphenyl)methyl ester,(1R,3S)-rel-
Permethrin (isomers) solution, 100 mug/mL in acetonitrile, PESTANAL(R), analytical standard
Permethrin (isomers) solution, cis/trans isomers, 1000 mug/mL in methanol, analytical standard

> <TPSA>
35.5

> <TotalAidCount>
791

> <TotalFormalCharge>
0

> <XLogP>
6.5

> <database>
PubChem Compound

> <matchingCount>
176

> <primaryID>
40326

> <queryTranslation>
7628[CompoundID] OR 244[CompoundID] OR 25059[CompoundID] OR 7618[CompoundID] OR 7641[CompoundID] OR 5053[CompoundID] OR 637511[CompoundID] OR 7714[CompoundID] OR 7762[CompoundID] OR 25429[CompoundID]
OR 8842[CompoundID] OR 7794[CompoundID] OR 637566[CompoundID] OR 7843[CompoundID] OR 174[CompoundID] OR 7870[CompoundID] OR 86102[CompoundID] OR 7888[CompoundID] OR 7896[CompoundID] OR 1140[CompoundID
] OR 8042[CompoundID] OR 8058[CompoundID] OR 8078[CompoundID] OR 8087[CompoundID] OR 8117[CompoundID] OR 8133[CompoundID] OR 115224[CompoundID] OR 8175[CompoundID] OR 8194[CompoundID] OR 445639[Compou
ndID] OR 4944[CompoundID] OR 8294[CompoundID] OR 93541[CompoundID] OR 8360[CompoundID] OR 8363[CompoundID] OR 656612[CompoundID] OR 125098[CompoundID] OR 3352[CompoundID] OR 3303913[CompoundID] OR 648
05[CompoundID] OR 31200[CompoundID] OR 1712058[CompoundID] OR 31236[CompoundID] OR 31239[CompoundID] OR 31265[CompoundID] OR 31266[CompoundID] OR 31276[CompoundID] OR 6950273[CompoundID] OR 518659[Com
poundID] OR 14896[CompoundID] OR 14798[CompoundID] OR 14829[CompoundID] OR 14830[CompoundID] OR 8635[CompoundID] OR 23266[CompoundID] OR 4284[CompoundID] OR 8693[CompoundID] OR 22311[CompoundID] OR 87
59[CompoundID] OR 8785[CompoundID] OR 2723810[CompoundID] OR 8857[CompoundID] OR 3893[CompoundID] OR 9936739[CompoundID] OR 516892[CompoundID] OR 5430[CompoundID] OR 9017[CompoundID] OR 15433[Compound
ID] OR 107720[CompoundID] OR 9552081[CompoundID] OR 164825[CompoundID] OR 10275455[CompoundID] OR 16666[CompoundID] OR 9839306[CompoundID] OR 5282227[CompoundID] OR 23676745[CompoundID] OR 32881[Compo
undID] OR 91581[CompoundID] OR 39800[CompoundID] OR 33344[CompoundID] OR 15962220[CompoundID] OR 33528[CompoundID] OR 5365075[CompoundID] OR 62829[CompoundID] OR 162381[CompoundID] OR 517202[CompoundI
D] OR 6433353[CompoundID] OR 2730[CompoundID] OR 5372405[CompoundID] OR 36081[CompoundID] OR 3120[CompoundID] OR 3017[CompoundID] OR 2969[CompoundID] OR 18827[CompoundID] OR 19518[CompoundID] OR 19658
[CompoundID] OR 38283[CompoundID] OR 2758[CompoundID] OR 10112[CompoundID] OR 10340[CompoundID] OR 712[CompoundID] OR 5794[CompoundID] OR 3347[CompoundID] OR 104150[CompoundID] OR 2912[CompoundID] OR
2450[CompoundID] OR 40326[CompoundID] OR 40585[CompoundID] OR 517055[CompoundID] OR 10913[CompoundID] OR 108242[CompoundID] OR 62097[CompoundID] OR 41679[CompoundID] OR 54680676[CompoundID] OR 62118[C
ompoundID] OR 753[CompoundID] OR 1030[CompoundID] OR 23673837[CompoundID] OR 54678504[CompoundID] OR 11442[CompoundID] OR 11463[CompoundID] OR 22230[CompoundID] OR 440917[CompoundID] OR 6054[CompoundI
D] OR 43234[CompoundID] OR 22629[CompoundID] OR 3039[CompoundID] OR 2735067[CompoundID] OR 6144[CompoundID] OR 702[CompoundID] OR 284[CompoundID] OR 176[CompoundID] OR 91688[CompoundID] OR 22947[Compo
undID] OR 47445[CompoundID] OR 1711973[CompoundID] OR 243[CompoundID] OR 10342051[CompoundID] OR 5281875[CompoundID] OR 3776[CompoundID] OR 6224[CompoundID] OR 104926[CompoundID] OR 8755[CompoundID] O
R 338[CompoundID] OR 123622[CompoundID] OR 23954[CompoundID] OR 6334[CompoundID] OR 2537[CompoundID] OR 24261[CompoundID] OR 23665760[CompoundID] OR 83975[CompoundID] OR 784[CompoundID] OR 24437[Compo
undID] OR 5360315[CompoundID] OR 311[CompoundID] OR 6549[CompoundID] OR 107689[CompoundID] OR 17100[CompoundID] OR 24976875[CompoundID] OR 6654[CompoundID] OR 71245[CompoundID] OR 6442842[CompoundID]
OR 62334[CompoundID] OR 54698175[CompoundID] OR 6328154[CompoundID] OR 24762[CompoundID] OR 440950[CompoundID] OR 7017[CompoundID] OR 5281873[CompoundID] OR 323[CompoundID] OR 5281167[CompoundID] OR 7
175[CompoundID] OR 7292[CompoundID] OR 6335613[CompoundID] OR 7456[CompoundID] OR 7462[CompoundID]

> <resultIndex>
66

> <resultRange>
1-176

> <textQuery>
7628,244,25059,7618,7641,5053,637511,7714,7762,25429,8842,7794,637566,7843,174,7870,86102,7888,7896,1140,8042,8058,8078,8087,8117,8133,115224,8175,8194,445639,4944,8294,93541,8360,8363,656612,125098,3
352,3303913,64805,31200,1712058,31236,31239,31265,31266,31276,6950273,518659,14896,14798,14829,14830,8635,23266,4284,8693,22311,8759,8785,2723810,8857,3893,9936739,516892,5430,9017,15433,107720,955208
1,164825,10275455,16666,9839306,5282227,23676745,32881,91581,39800,33344,15962220,33528,5365075,62829,162381,517202,6433353,2730,5372405,36081,3120,3017,2969,18827,19518,19658,38283,2758,10112,10340,7
12,5794,3347,104150,2912,2450,40326,40585,517055,10913,108242,62097,41679,54680676,62118,753,1030,23673837,54678504,11442,11463,22230,440917,6054,43234,22629,3039,2735067,6144,702,284,176,91688,22947,
47445,1711973,243,10342051,5281875,3776,6224,104926,8755,338,123622,23954,6334,2537,24261,23665760,83975,784,24437,5360315,311,6549,107689,17100,24976875,6654,71245,6442842,62334,54698175,6328154,2476
2,440950,7017,5281873,323,5281167,7175,7292,6335613,7456,7462

$$$$
39,800
  SciTegic10191915303D

 12 12  0  0  0  0            999 V2000
   -1.5700   -1.2070    0.0010 C   0  0
   -0.3190   -0.4560   -0.0060 N   0  0
    1.1940   -1.2120   -0.0860 S   0  0
    1.9920    0.2790   -0.0450 C   0  0
    1.1810    1.3450    0.0270 C   0  0
   -0.2240    0.9420    0.0530 C   0  0
   -1.1780    1.6820    0.1150 O   0  0
   -1.3550   -2.2710   -0.0950 H   0  0
   -2.1310   -0.9700    0.9040 H   0  0
   -2.1760   -0.9110   -0.8560 H   0  0
    3.0640    0.4070   -0.0730 H   0  0
    1.5210    2.3700    0.0620 H   0  0
  1  2  1  0
  2  3  1  0
  2  6  1  0
  3  4  1  0
  4  5  2  0
  5  6  1  0
  6  7  2  0
  1  8  1  0
  1  9  1  0
  1 10  1  0
  4 11  1  0
  5 12  1  0
M  END
> <Name>
39,800

> <OBJECTID>
9223372324620926987

> <ActiveAidCount>
14

> <AtomChiralCount>
0

> <AtomChiralDefCount>
0

> <AtomChiralUndefCount>
0

> <BondChiralCount>
0

> <BondChiralDefCount>
0

> <BondChiralUndefCount>
0

> <CID>
39800

> <CanonicalSmiles>
CN1C(=O)C=CS1

> <Complexity>
121

> <CovalentUnitCount>
1

> <CreateDate>
2005/03/27 00:00

> <HeavyAtomCount>
7

> <HydrogenBondAcceptorCount>
2

> <HydrogenBondDonorCount>
0

> <IUPACName>
2-methyl-1,2-thiazol-3-one

> <InChI>
InChI=1S/C4H5NOS/c1-5-4(6)2-3-7-5/h2-3H,1H3

> <InChIKey>
BEGLCMHJXHIJLR-UHFFFAOYSA-N

> <IsomericSmiles>
CN1C(=O)C=CS1

> <IsotopeAtomCount>
0

> <MeSHHeading>
2-methyl-4-isothiazolin-3-one

> <MeSHTerm>
2-methyl-4-isothiazolin-3-one
methyl-isothiazolinone
243-K-Cg
methylisothiazolidinone
N-methylisothiazolone
methylisothiazolinone
methylisothiazolone
2-methyl-4-isothiazolin-3-one hydrochloride

> <MolecularFormula>
C4H5NOS

> <MolecularWeight>
115.16

> <PharmAction>
Specialty Uses of Chemicals
Therapeutic Uses
Disinfectants
Pharmacologic Actions
Chemical Actions and Uses
Anti-Infective Agents

> <RotatableBondCount>
0

> <Smiles>
CN1C(=O)C=CS1

> <SourceCategory>
Chemical Vendors
Legacy Depositors
Research and Development
Curation Efforts
Governmental Organizations
NIH Initiatives
Subscription Services
Journal Publishers

> <Synonym>
2-Methyl-4-isothiazolin-3-one
2682-20-4
Methylisothiazolinone
2-methylisothiazol-3(2h)-one
2-Methyl-4-isothiazoline-3-one
2-Methyl-3(2H)-isothiazolone
N-methylisothiazolone
3(2H)-Isothiazolone, 2-methyl-
Caswell No. 572A
2-methyl-3-isothiazolone
C4H5NOS
UNII-229D0E1QFA
N-Methyl-3-oxodihydroisothiazole
EINECS 220-239-6
2-methyl-1,2-thiazol-3(2H)-one
2-METHYL-2H-ISOTHIAZOL-3-ONE
N-METHYL-3-OXODIHYDRO ISOTHIAZOLE
229D0E1QFA
2-methyl-1,2-thiazol-3-one
3(2H)-Isothiazolone, methyl-
CHEBI:53620
BEGLCMHJXHIJLR-UHFFFAOYSA-N
MFCD01742315
2-Methyl-4-isothiazolin-3-one (MI)
W-107150
2-Methyl-4-isothiazolin-3-one, 50% aqueous solution
Neolone
Microcare MT
Kordek MLX
MIT (biocide)
125794-71-0
Acticide M 10
Acticide M 20
Bestcide 600
Kordek 50
Kordek 50C
Neolone 950
methyl-isothiazolinone
Kordek 573F
Kathon CG 243
n-methylisothiazolin-3-one
243-K-Cg
HSDB 8200
MIT 950
MT 10
2-Methyl-4-isothiazoline-3-ketone
KB 838
2-methylisothiazol-3-one
Kathon886(kathonbiocide)
ACMC-1CJ8U
2-methyl-4-isothiazolinone
AC1L22HC
DSSTox_CID_14259
DSSTox_GSID_34259
SCHEMBL17863
SCHEMBL113898
2-methyl-3(2H)-isothiazoline
AC1Q6C15
Jsp005245
CHEMBL1620780
DTXSID2034259
CTK0F6815
2-Methyl 4-Isothiazoline 3-one
2-Methyl-3(2H)-isothiazolone #
ZINC1849933
Tox21_303814
ANW-56607
BBL104136
STL557951
AKOS007930246
AM84857
AN-5809
FCH1119869
RTR-012090
2-Methyl-4-isothiazolin-3-one, 95%
KS-000018Y9
NCGC00357093-01
AJ-32025
AK-25686
BC200617
CC-11387
CJ-30428
LS-86324
SC-16032
CAS-2682-20-4
AB0011560
AX8002292
DB-005250
TR-012090
FT-0601044
ST24022348
X5929
K-6885
682M204
C-00606
2-Methyl-4-isothiazolin-3-one, analytical standard
I14-0041
UNII-15O9QS218W component BEGLCMHJXHIJLR-UHFFFAOYSA-N

> <TPSA>
45.6

> <TotalAidCount>
117

> <TotalFormalCharge>
0

> <XLogP>
0

> <database>
PubChem Compound

> <matchingCount>
176

> <primaryID>
39800

> <queryTranslation>
7628[CompoundID] OR 244[CompoundID] OR 25059[CompoundID] OR 7618[CompoundID] OR 7641[CompoundID] OR 5053[CompoundID] OR 637511[CompoundID] OR 7714[CompoundID] OR 7762[CompoundID] OR 25429[CompoundID]
OR 8842[CompoundID] OR 7794[CompoundID] OR 637566[CompoundID] OR 7843[CompoundID] OR 174[CompoundID] OR 7870[CompoundID] OR 86102[CompoundID] OR 7888[CompoundID] OR 7896[CompoundID] OR 1140[CompoundID
] OR 8042[CompoundID] OR 8058[CompoundID] OR 8078[CompoundID] OR 8087[CompoundID] OR 8117[CompoundID] OR 8133[CompoundID] OR 115224[CompoundID] OR 8175[CompoundID] OR 8194[CompoundID] OR 445639[Compou
ndID] OR 4944[CompoundID] OR 8294[CompoundID] OR 93541[CompoundID] OR 8360[CompoundID] OR 8363[CompoundID] OR 656612[CompoundID] OR 125098[CompoundID] OR 3352[CompoundID] OR 3303913[CompoundID] OR 648
05[CompoundID] OR 31200[CompoundID] OR 1712058[CompoundID] OR 31236[CompoundID] OR 31239[CompoundID] OR 31265[CompoundID] OR 31266[CompoundID] OR 31276[CompoundID] OR 6950273[CompoundID] OR 518659[Com
poundID] OR 14896[CompoundID] OR 14798[CompoundID] OR 14829[CompoundID] OR 14830[CompoundID] OR 8635[CompoundID] OR 23266[CompoundID] OR 4284[CompoundID] OR 8693[CompoundID] OR 22311[CompoundID] OR 87
59[CompoundID] OR 8785[CompoundID] OR 2723810[CompoundID] OR 8857[CompoundID] OR 3893[CompoundID] OR 9936739[CompoundID] OR 516892[CompoundID] OR 5430[CompoundID] OR 9017[CompoundID] OR 15433[Compound
ID] OR 107720[CompoundID] OR 9552081[CompoundID] OR 164825[CompoundID] OR 10275455[CompoundID] OR 16666[CompoundID] OR 9839306[CompoundID] OR 5282227[CompoundID] OR 23676745[CompoundID] OR 32881[Compo
undID] OR 91581[CompoundID] OR 39800[CompoundID] OR 33344[CompoundID] OR 15962220[CompoundID] OR 33528[CompoundID] OR 5365075[CompoundID] OR 62829[CompoundID] OR 162381[CompoundID] OR 517202[CompoundI
D] OR 6433353[CompoundID] OR 2730[CompoundID] OR 5372405[CompoundID] OR 36081[CompoundID] OR 3120[CompoundID] OR 3017[CompoundID] OR 2969[CompoundID] OR 18827[CompoundID] OR 19518[CompoundID] OR 19658
[CompoundID] OR 38283[CompoundID] OR 2758[CompoundID] OR 10112[CompoundID] OR 10340[CompoundID] OR 712[CompoundID] OR 5794[CompoundID] OR 3347[CompoundID] OR 104150[CompoundID] OR 2912[CompoundID] OR
2450[CompoundID] OR 40326[CompoundID] OR 40585[CompoundID] OR 517055[CompoundID] OR 10913[CompoundID] OR 108242[CompoundID] OR 62097[CompoundID] OR 41679[CompoundID] OR 54680676[CompoundID] OR 62118[C
ompoundID] OR 753[CompoundID] OR 1030[CompoundID] OR 23673837[CompoundID] OR 54678504[CompoundID] OR 11442[CompoundID] OR 11463[CompoundID] OR 22230[CompoundID] OR 440917[CompoundID] OR 6054[CompoundI
D] OR 43234[CompoundID] OR 22629[CompoundID] OR 3039[CompoundID] OR 2735067[CompoundID] OR 6144[CompoundID] OR 702[CompoundID] OR 284[CompoundID] OR 176[CompoundID] OR 91688[CompoundID] OR 22947[Compo
undID] OR 47445[CompoundID] OR 1711973[CompoundID] OR 243[CompoundID] OR 10342051[CompoundID] OR 5281875[CompoundID] OR 3776[CompoundID] OR 6224[CompoundID] OR 104926[CompoundID] OR 8755[CompoundID] O
R 338[CompoundID] OR 123622[CompoundID] OR 23954[CompoundID] OR 6334[CompoundID] OR 2537[CompoundID] OR 24261[CompoundID] OR 23665760[CompoundID] OR 83975[CompoundID] OR 784[CompoundID] OR 24437[Compo
undID] OR 5360315[CompoundID] OR 311[CompoundID] OR 6549[CompoundID] OR 107689[CompoundID] OR 17100[CompoundID] OR 24976875[CompoundID] OR 6654[CompoundID] OR 71245[CompoundID] OR 6442842[CompoundID]
OR 62334[CompoundID] OR 54698175[CompoundID] OR 6328154[CompoundID] OR 24762[CompoundID] OR 440950[CompoundID] OR 7017[CompoundID] OR 5281873[CompoundID] OR 323[CompoundID] OR 5281167[CompoundID] OR 7
175[CompoundID] OR 7292[CompoundID] OR 6335613[CompoundID] OR 7456[CompoundID] OR 7462[CompoundID]

> <resultIndex>
67

> <resultRange>
1-176

> <textQuery>
7628,244,25059,7618,7641,5053,637511,7714,7762,25429,8842,7794,637566,7843,174,7870,86102,7888,7896,1140,8042,8058,8078,8087,8117,8133,115224,8175,8194,445639,4944,8294,93541,8360,8363,656612,125098,3
352,3303913,64805,31200,1712058,31236,31239,31265,31266,31276,6950273,518659,14896,14798,14829,14830,8635,23266,4284,8693,22311,8759,8785,2723810,8857,3893,9936739,516892,5430,9017,15433,107720,955208
1,164825,10275455,16666,9839306,5282227,23676745,32881,91581,39800,33344,15962220,33528,5365075,62829,162381,517202,6433353,2730,5372405,36081,3120,3017,2969,18827,19518,19658,38283,2758,10112,10340,7
12,5794,3347,104150,2912,2450,40326,40585,517055,10913,108242,62097,41679,54680676,62118,753,1030,23673837,54678504,11442,11463,22230,440917,6054,43234,22629,3039,2735067,6144,702,284,176,91688,22947,
47445,1711973,243,10342051,5281875,3776,6224,104926,8755,338,123622,23954,6334,2537,24261,23665760,83975,784,24437,5360315,311,6549,107689,17100,24976875,6654,71245,6442842,62334,54698175,6328154,2476
2,440950,7017,5281873,323,5281167,7175,7292,6335613,7456,7462

$$$$
38,283
  SciTegic10191915303D

 53 55  0  0  1  0            999 V2000
   -1.1190    1.3540    0.5700 O   0  0
   -0.2500   -0.0330   -0.9590 O   0  0
   -2.9920   -4.1600   -0.0630 O   0  0
   -4.3030    1.9490    1.5060 N   0  0
    1.7620    2.3440   -1.3420 C   0  0
    1.1580    1.6910   -0.1090 C   0  0  3  0  0  0
    1.1270    3.1990   -0.2580 C   0  0  3  0  0  0
   -0.1410    0.9120   -0.2130 C   0  0
    1.9960    4.0510    0.6500 C   0  0
    3.2810    2.3240   -1.4670 C   0  0
    1.0180    2.2340   -2.6680 C   0  0
   -2.3320    0.6430    0.3770 C   0  0  3  0  0  0
    2.4140    5.2600    0.2400 C   0  0
   -2.1820   -0.7420    0.8950 C   0  0
   -2.6720   -1.8300    0.1480 C   0  0
   -2.5310   -3.1430    0.6370 C   0  0
   -3.4300    1.3690    1.0060 C   0  0
   -1.5470   -0.9690    2.1290 C   0  0
    3.2990    6.0630    1.1560 C   0  0
    1.9750    5.7500   -1.1130 C   0  0
   -1.8980   -3.3630    1.8710 C   0  0
   -1.4060   -2.2790    2.6170 C   0  0
   -2.2930   -5.2770   -0.0630 C   0  0
   -2.9470   -6.5220   -0.0630 C   0  0
   -0.8870   -5.2310   -0.0630 C   0  0
   -2.2010   -7.7130   -0.0630 C   0  0
   -0.1390   -6.4200   -0.0630 C   0  0
   -0.7970   -7.6620   -0.0630 C   0  0
    1.8610    1.2890    0.6210 H   0  0
    0.1620    3.6470   -0.4940 H   0  0
    2.2420    3.6270    1.6130 H   0  0
    3.6350    1.4340   -1.9880 H   0  0
    3.7500    2.3420   -0.4820 H   0  0
    3.6330    3.1950   -2.0200 H   0  0
    1.2850    1.3280   -3.2110 H   0  0
    1.2480    3.0860   -3.3110 H   0  0
   -0.0600    2.2210   -2.5060 H   0  0
   -2.4860    0.6110   -0.7010 H   0  0
   -3.1600   -1.6600   -0.8010 H   0  0
   -1.1680   -0.1370    2.7050 H   0  0
    3.9380    5.4490    1.7910 H   0  0
    2.6900    6.6900    1.8050 H   0  0
    3.9440    6.7170    0.5680 H   0  0
    2.4860    5.1860   -1.8950 H   0  0
    0.8930    5.6680   -1.2030 H   0  0
    2.2420    6.7990   -1.2300 H   0  0
   -1.7870   -4.3690    2.2500 H   0  0
   -0.9200   -2.4510    3.5650 H   0  0
   -4.0270   -6.5650   -0.0630 H   0  0
   -0.3770   -4.2770   -0.0630 H   0  0
   -2.7070   -8.6680   -0.0630 H   0  0
    0.9400   -6.3810   -0.0630 H   0  0
   -0.2230   -8.5780   -0.0630 H   0  0
  1  8  1  0
  1 12  1  0
  2  8  2  0
  3 16  1  0
  3 23  1  0
  4 17  3  0
  5  6  1  0
  5  7  1  0
  5 10  1  0
  5 11  1  0
  6  7  1  0
  6  8  1  0
  7  9  1  0
  9 13  2  0
 12 14  1  0
 12 17  1  0
 13 19  1  0
 13 20  1  0
 14 15  2  0
 14 18  1  0
 15 16  1  0
 16 21  2  0
 18 22  2  0
 21 22  1  0
 23 24  2  0
 23 25  1  0
 24 26  1  0
 25 27  2  0
 26 28  2  0
 27 28  1  0
  6 29  1  0
  7 30  1  0
  9 31  1  0
 10 32  1  0
 10 33  1  0
 10 34  1  0
 11 35  1  0
 11 36  1  0
 11 37  1  0
 12 38  1  0
 15 39  1  0
 18 40  1  0
 19 41  1  0
 19 42  1  0
 19 43  1  0
 20 44  1  0
 20 45  1  0
 20 46  1  0
 21 47  1  0
 22 48  1  0
 24 49  1  0
 25 50  1  0
 26 51  1  0
 27 52  1  0
 28 53  1  0
M  END
> <Name>
38,283

> <OBJECTID>
9223372328915894283

> <ActiveAidCount>
5

> <AtomChiralCount>
3

> <AtomChiralDefCount>
0

> <AtomChiralUndefCount>
3

> <BondChiralCount>
0

> <BondChiralDefCount>
0

> <BondChiralUndefCount>
0

> <CID>
38283

> <CanonicalSmiles>
CC(=CC1C(C1(C)C)C(=O)OC(C#N)C2=CC(=CC=C2)OC3=CC=CC=C3)C

> <Complexity>
634

> <CovalentUnitCount>
1

> <CreateDate>
2005/06/24 00:00

> <HeavyAtomCount>
28

> <HydrogenBondAcceptorCount>
4

> <HydrogenBondDonorCount>
0

> <IUPACName>
[cyano-(3-phenoxyphenyl)methyl] 2,2-dimethyl-3-(2-methylprop-1-enyl)cyclopropane-1-carboxylate

> <InChI>
InChI=1S/C24H25NO3/c1-16(2)13-20-22(24(20,3)4)23(26)28-21(15-25)17-9-8-12-19(14-17)27-18-10-6-5-7-11-18/h5-14,20-22H,1-4H3

> <InChIKey>
FJDPATXIBIBRIM-UHFFFAOYSA-N

> <IsomericSmiles>
CC(=CC1C(C1(C)C)C(=O)OC(C#N)C2=CC(=CC=C2)OC3=CC=CC=C3)C

> <IsotopeAtomCount>
0

> <MeSHHeading>
cyphenothrin

> <MeSHTerm>
cyphenothrin, methyl ester-14C-labeled
cyphenothrin
cyphenothrin, (1alpha(R*),3alpha)-(+-)-isomer
cis-cyphenothrin
cyphenothrin, 1R-(1alpha(S*),3beta)-isomer
cyphenothrin, 1R-(1alpha(S*),3alpha)-isomer

> <MolecularFormula>
C24H25NO3

> <MolecularWeight>
375.5

> <RotatableBondCount>
7

> <Smiles>
O(C(C#N)c1cccc(c1)Oc2ccccc2)C(C3C(\C=C(\C)/C)C3(C)C)=O

> <SourceCategory>
Legacy Depositors
Chemical Vendors
Research and Development
Curation Efforts
Governmental Organizations
NIH Initiatives
Subscription Services
Journal Publishers

> <Synonym>
Cyphenothrin
39515-40-7
Gokilaht
Cyphenothrin [ISO]
S 2703 forte
d.d-T-Cyphenothrin
EINECS 254-484-5
SP 2703
CHEBI:31450
S 2703
[cyano-(3-phenoxyphenyl)methyl] 2,2-dimethyl-3-(2-methylprop-1-enyl)cyclopropane-1-carboxylate
alpha-Cyano-3-phenoxybenzyl 2,2-dimethyl-3-(2-methylprop-1-enyl)cyclopropanecarboxylate
Cyclopropanecarboxylic acid, 2,2-dimethyl-3-(2-methyl-1-propenyl)-, cyano(3-phenoxyphenyl)methyl ester
cyano(3-phenoxyphenyl)methyl 2,2-dimethyl-3-(2-methylprop-1-en-1-yl)cyclopropanecarboxylate
CCRIS 9268
AC1L1ZFZ
d.d-T-Cyphenothrin (JAN)
DSSTox_CID_12536
DSSTox_RID_78973
DSSTox_GSID_32536
SCHEMBL26783
MLS004712077
CHEMBL3182113
DTXSID4032536
CTK8F8874
FJDPATXIBIBRIM-UHFFFAOYSA-N
Tox21_301919
MFCD01960864
NCGC00181753-01
NCGC00255243-01
AS-15556
Cyphenothrin 10 microg/mL in Cyclohexane
LS-58683
LS-58684
P853
SMR001564097
CAS-39515-40-7
528-EP2274983A1
528-EP2275422A1
FT-0639550
C12962
D01511
Cyphenothrin, PESTANAL(R), analytical standard
515C407
A824594
C-36399
[cyano-(3-phenoxyphenyl)methyl] 2,2-dimethyl-3-(2-methylprop-1-enyl)cyclopropanecarboxylate
cyano(3-phenoxyphenyl)methyl 2,2-dimethyl-3-(2-methyl-1-propenyl)cyclopropanecarboxylate
( inverted exclamation markA)-|A-Cyano-3-phenoxybenzyl ( inverted exclamation markA)-cis/trans-chrysanthemate
2,2-dimethyl-3-(2-methylprop-1-enyl)-1-cyclopropanecarboxylic acid [cyano-(3-phenoxyphenyl)methyl] ester

> <TPSA>
59.3

> <TotalAidCount>
215

> <TotalFormalCharge>
0

> <XLogP>
5.8

> <database>
PubChem Compound

> <matchingCount>
176

> <primaryID>
38283

> <queryTranslation>
7628[CompoundID] OR 244[CompoundID] OR 25059[CompoundID] OR 7618[CompoundID] OR 7641[CompoundID] OR 5053[CompoundID] OR 637511[CompoundID] OR 7714[CompoundID] OR 7762[CompoundID] OR 25429[CompoundID]
OR 8842[CompoundID] OR 7794[CompoundID] OR 637566[CompoundID] OR 7843[CompoundID] OR 174[CompoundID] OR 7870[CompoundID] OR 86102[CompoundID] OR 7888[CompoundID] OR 7896[CompoundID] OR 1140[CompoundID
] OR 8042[CompoundID] OR 8058[CompoundID] OR 8078[CompoundID] OR 8087[CompoundID] OR 8117[CompoundID] OR 8133[CompoundID] OR 115224[CompoundID] OR 8175[CompoundID] OR 8194[CompoundID] OR 445639[Compou
ndID] OR 4944[CompoundID] OR 8294[CompoundID] OR 93541[CompoundID] OR 8360[CompoundID] OR 8363[CompoundID] OR 656612[CompoundID] OR 125098[CompoundID] OR 3352[CompoundID] OR 3303913[CompoundID] OR 648
05[CompoundID] OR 31200[CompoundID] OR 1712058[CompoundID] OR 31236[CompoundID] OR 31239[CompoundID] OR 31265[CompoundID] OR 31266[CompoundID] OR 31276[CompoundID] OR 6950273[CompoundID] OR 518659[Com
poundID] OR 14896[CompoundID] OR 14798[CompoundID] OR 14829[CompoundID] OR 14830[CompoundID] OR 8635[CompoundID] OR 23266[CompoundID] OR 4284[CompoundID] OR 8693[CompoundID] OR 22311[CompoundID] OR 87
59[CompoundID] OR 8785[CompoundID] OR 2723810[CompoundID] OR 8857[CompoundID] OR 3893[CompoundID] OR 9936739[CompoundID] OR 516892[CompoundID] OR 5430[CompoundID] OR 9017[CompoundID] OR 15433[Compound
ID] OR 107720[CompoundID] OR 9552081[CompoundID] OR 164825[CompoundID] OR 10275455[CompoundID] OR 16666[CompoundID] OR 9839306[CompoundID] OR 5282227[CompoundID] OR 23676745[CompoundID] OR 32881[Compo
undID] OR 91581[CompoundID] OR 39800[CompoundID] OR 33344[CompoundID] OR 15962220[CompoundID] OR 33528[CompoundID] OR 5365075[CompoundID] OR 62829[CompoundID] OR 162381[CompoundID] OR 517202[CompoundI
D] OR 6433353[CompoundID] OR 2730[CompoundID] OR 5372405[CompoundID] OR 36081[CompoundID] OR 3120[CompoundID] OR 3017[CompoundID] OR 2969[CompoundID] OR 18827[CompoundID] OR 19518[CompoundID] OR 19658
[CompoundID] OR 38283[CompoundID] OR 2758[CompoundID] OR 10112[CompoundID] OR 10340[CompoundID] OR 712[CompoundID] OR 5794[CompoundID] OR 3347[CompoundID] OR 104150[CompoundID] OR 2912[CompoundID] OR
2450[CompoundID] OR 40326[CompoundID] OR 40585[CompoundID] OR 517055[CompoundID] OR 10913[CompoundID] OR 108242[CompoundID] OR 62097[CompoundID] OR 41679[CompoundID] OR 54680676[CompoundID] OR 62118[C
ompoundID] OR 753[CompoundID] OR 1030[CompoundID] OR 23673837[CompoundID] OR 54678504[CompoundID] OR 11442[CompoundID] OR 11463[CompoundID] OR 22230[CompoundID] OR 440917[CompoundID] OR 6054[CompoundI
D] OR 43234[CompoundID] OR 22629[CompoundID] OR 3039[CompoundID] OR 2735067[CompoundID] OR 6144[CompoundID] OR 702[CompoundID] OR 284[CompoundID] OR 176[CompoundID] OR 91688[CompoundID] OR 22947[Compo
undID] OR 47445[CompoundID] OR 1711973[CompoundID] OR 243[CompoundID] OR 10342051[CompoundID] OR 5281875[CompoundID] OR 3776[CompoundID] OR 6224[CompoundID] OR 104926[CompoundID] OR 8755[CompoundID] O
R 338[CompoundID] OR 123622[CompoundID] OR 23954[CompoundID] OR 6334[CompoundID] OR 2537[CompoundID] OR 24261[CompoundID] OR 23665760[CompoundID] OR 83975[CompoundID] OR 784[CompoundID] OR 24437[Compo
undID] OR 5360315[CompoundID] OR 311[CompoundID] OR 6549[CompoundID] OR 107689[CompoundID] OR 17100[CompoundID] OR 24976875[CompoundID] OR 6654[CompoundID] OR 71245[CompoundID] OR 6442842[CompoundID]
OR 62334[CompoundID] OR 54698175[CompoundID] OR 6328154[CompoundID] OR 24762[CompoundID] OR 440950[CompoundID] OR 7017[CompoundID] OR 5281873[CompoundID] OR 323[CompoundID] OR 5281167[CompoundID] OR 7
175[CompoundID] OR 7292[CompoundID] OR 6335613[CompoundID] OR 7456[CompoundID] OR 7462[CompoundID]

> <resultIndex>
68

> <resultRange>
1-176

> <textQuery>
7628,244,25059,7618,7641,5053,637511,7714,7762,25429,8842,7794,637566,7843,174,7870,86102,7888,7896,1140,8042,8058,8078,8087,8117,8133,115224,8175,8194,445639,4944,8294,93541,8360,8363,656612,125098,3
352,3303913,64805,31200,1712058,31236,31239,31265,31266,31276,6950273,518659,14896,14798,14829,14830,8635,23266,4284,8693,22311,8759,8785,2723810,8857,3893,9936739,516892,5430,9017,15433,107720,955208
1,164825,10275455,16666,9839306,5282227,23676745,32881,91581,39800,33344,15962220,33528,5365075,62829,162381,517202,6433353,2730,5372405,36081,3120,3017,2969,18827,19518,19658,38283,2758,10112,10340,7
12,5794,3347,104150,2912,2450,40326,40585,517055,10913,108242,62097,41679,54680676,62118,753,1030,23673837,54678504,11442,11463,22230,440917,6054,43234,22629,3039,2735067,6144,702,284,176,91688,22947,
47445,1711973,243,10342051,5281875,3776,6224,104926,8755,338,123622,23954,6334,2537,24261,23665760,83975,784,24437,5360315,311,6549,107689,17100,24976875,6654,71245,6442842,62334,54698175,6328154,2476
2,440950,7017,5281873,323,5281167,7175,7292,6335613,7456,7462

$$$$
36,081
  SciTegic10191915303D

 36 36  0  0  0  0            999 V2000
    4.9830   -1.8790   -0.9200 C   0  0
    3.7600   -1.4140   -0.1760 C   0  0
    3.4630   -1.8910    0.8950 O   0  0
    3.0570   -0.4610   -0.7830 O   0  0
    1.8440   -0.1680   -0.1050 C   0  0  3  0  0  0
    0.8280   -1.2870   -0.3770 C   0  0
   -0.5410   -0.9670    0.2400 C   0  0
   -1.0760    0.3980   -0.2250 C   0  0  3  0  0  0
   -0.0510    1.5140    0.0490 C   0  0
    1.3180    1.1970   -0.5700 C   0  0
   -2.4260    0.7170    0.4260 C   0  0
   -3.1800   -0.0550   -0.6580 C   0  0
   -2.7460    2.2110    0.4200 C   0  0
   -2.5760    0.0860    1.8110 C   0  0
    5.4920   -2.6540   -0.3460 H   0  0
    4.7010   -2.2340   -1.9120 H   0  0
    5.6780   -1.0490   -1.0470 H   0  0
    2.0650   -0.1290    0.9630 H   0  0
    0.7150   -1.4220   -1.4530 H   0  0
    1.2010   -2.2320    0.0180 H   0  0
   -0.4550   -0.9770    1.3280 H   0  0
   -1.2520   -1.7540   -0.0180 H   0  0
   -1.2340    0.3480   -1.3030 H   0  0
    0.0660    1.6500    1.1250 H   0  0
   -0.4180    2.4630   -0.3440 H   0  0
    1.2320    1.2030   -1.6560 H   0  0
    2.0350    1.9790   -0.3110 H   0  0
   -2.7640   -1.0490   -0.8130 H   0  0
   -3.1390    0.4770   -1.6070 H   0  0
   -4.2290   -0.1720   -0.3870 H   0  0
   -2.1330    2.7620    1.1310 H   0  0
   -3.7910    2.3810    0.6800 H   0  0
   -2.5740    2.6390   -0.5680 H   0  0
   -1.7270    0.3140    2.4550 H   0  0
   -2.6540   -0.9980    1.7340 H   0  0
   -3.4750    0.4530    2.3050 H   0  0
  1  2  1  0
  2  3  2  0
  2  4  1  0
  4  5  1  0
  5  6  1  0
  5 10  1  0
  6  7  1  0
  7  8  1  0
  8  9  1  0
  8 11  1  0
  9 10  1  0
 11 12  1  0
 11 13  1  0
 11 14  1  0
  1 15  1  0
  1 16  1  0
  1 17  1  0
  5 18  1  0
  6 19  1  0
  6 20  1  0
  7 21  1  0
  7 22  1  0
  8 23  1  0
  9 24  1  0
  9 25  1  0
 10 26  1  0
 10 27  1  0
 12 28  1  0
 12 29  1  0
 12 30  1  0
 13 31  1  0
 13 32  1  0
 13 33  1  0
 14 34  1  0
 14 35  1  0
 14 36  1  0
M  END
> <Name>
36,081

> <OBJECTID>
9223372333210861579

> <ActiveAidCount>
0

> <AtomChiralCount>
0

> <AtomChiralDefCount>
0

> <AtomChiralUndefCount>
0

> <BondChiralCount>
0

> <BondChiralDefCount>
0

> <BondChiralUndefCount>
0

> <CID>
36081

> <CanonicalSmiles>
CC(=O)OC1CCC(CC1)C(C)(C)C

> <Complexity>
195

> <CovalentUnitCount>
1

> <CreateDate>
2005/03/26 00:00

> <HeavyAtomCount>
14

> <HydrogenBondAcceptorCount>
2

> <HydrogenBondDonorCount>
0

> <IUPACName>
(4-tert-butylcyclohexyl) acetate

> <InChI>
InChI=1S/C12H22O2/c1-9(13)14-11-7-5-10(6-8-11)12(2,3)4/h10-11H,5-8H2,1-4H3

> <InChIKey>
MBZRJSQZCBXRGK-UHFFFAOYSA-N

> <IsomericSmiles>
CC(=O)OC1CCC(CC1)C(C)(C)C

> <IsotopeAtomCount>
0

> <MeSHHeading>
4-tert-butylcyclohexyl acetate

> <MeSHTerm>
3-tert-butylcyclohexyl acetate
4-tert-butylcyclohexyl acetate

> <MolecularFormula>
C12H22O2

> <MolecularWeight>
198.3

> <RotatableBondCount>
3

> <Smiles>
CC(OC1CCC(C(C)(C)C)CC1)=O

> <SourceCategory>
Legacy Depositors
Chemical Vendors
Research and Development
Curation Efforts
Governmental Organizations
Subscription Services
Journal Publishers
NIH Initiatives

> <Synonym>
4-tert-Butylcyclohexyl acetate
32210-23-4
Vertenex
p-tert-Butyl cyclohexyl acetate
4-t-Butylcyclohexyl acetate
4-tert-Butylcyclohexanol acetate
4-tert-Butylhexahydrophenyl acetate
p-tert-Butylcyclohexyl acetate
Cyclohexanol, 4-(1,1-dimethylethyl)-, acetate, cis-
10411-92-4
4-tert-Butyl cyclohexyl acetate
Cyclohexanol, 4-(1,1-dimethylethyl)-, acetate
UNII-JN4PL52AKL
UNII-ATR4EHD017
Cyclohexanol, 4-tert-butyl-, acetate
NSC 163103
ACETIC ACID, (4-tert-BUTYLCYCLOHEXYL) ESTER
cis-4-tert-Butylcyclohexyl acetate
EINECS 250-954-9
JN4PL52AKL
4-tert-Butylcyclohexyl acetate, cis-
Cyclohexanol, 4-(1,1-dimethylethyl)-, 1-acetate
ATR4EHD017
Cyclohexanol, 4-(1,1-dimethylethyl)-, acetate, trans-
AI3-36523
1900-69-2
(4-tert-butylcyclohexyl) acetate
UNII-21EUM2B8UC
MBZRJSQZCBXRGK-UHFFFAOYSA-N
p-tert-Butyl cyclohexyl-acetate cis
Cyclohexanol, 4-(1,1-dimethylethyl)-, 1-acetate, cis-
Cyclohexanol, 4-(1,1-dimethylethyl)-, 1-acetate, trans-
Acetic acid 4-tert butylcyclohexyl ester
(4-tert-Butylcyclohexyl)acetate
21EUM2B8UC
Acetic acid p-tert-butylcyclohexyl ester
ptbcha
EINECS 217-598-6
EINECS 233-881-7
trans-4-tert-Butylcyclohexyl acetate
4-tert-Butylcyclohexanyl acetate, trans-
ACMC-1BMZ0
DSSTox_CID_7974
EC 233-881-7
EC 250-954-9
AC1L1V1V
DSSTox_RID_78627
DSSTox_GSID_27974
SCHEMBL80230
KSC497M1N
p-tert.butyl cyclohexyl acetate
SCHEMBL1552186
SCHEMBL1552476
4-tert.-butylcyclohexyl acetate
CHEMBL1887173
Cyclohexanol, 4-(1,1-dimethylethyl)-, acetate-, cis-
DTXSID1027974
CTK3J7616
4-tert butylcyclohexyl acetate 1
4-tert-butylcyclohexyl acetate 2
Cyclohexanol, 4-(1,1-dimethylethyl)-, acetate-, trans-
DTXSID70893643
CH3CO2C6H10C(CH3)3
MBZRJSQZCBXRGK-CACVWKRDSA-N
MBZRJSQZCBXRGK-PHIMTYICSA-N
MBZRJSQZCBXRGK-XYPYZODXSA-N
Acetic acid 4-tert-butylcyclohexyl
ZINC1635537
Tox21_200180
(4-tert-Butylcyclohexyl)acetate,c&t
MFCD00019354
NSC163103
p-tert-Butyl cyclohexyl-acetate trans
AKOS015903316
WLN: L6TJ AX1&1&1 DOV1
ZINC100049780
4-tert-Butylcyclohexyl acetate, (E)-
4-tert-Butylcyclohexyl acetate, (Z)-
MCULE-7240897549
NSC-163103
Cyclohexanol,1-dimethylethyl)-, acetate
KS-0000104V
4-tert-Butylcyclohexyl acetate, >=98%
Acetic Acid 4-tert-Butylcyclohexyl Ester
NCGC00164146-01
NCGC00164146-02
NCGC00257734-01
AN-20413
CJ-05852
LS-11205
P-T-BUTYLCYCLOHEXYL ACETATE (CIS)
CAS-32210-23-4
P-T-BUTYLCYCLOHEXYL ACETATE (TRANS)
RT-003926
A0723
Cyclohexyl, 4-tert-butyl-, acetate (cis-)
FT-0619478
V0593
Cyclohexanol, 4-tert-butyl-, acetate (8CI)
(1alpha,4alpha)-4-tert-Butylcyclohexyl=acetate
(1alpha,4beta)-4-tert-Butylcyclohexyl=acetate
J-018676
W-110271
I14-18796
4-tert-Butylcyclohexyl acetate, mixture of cis and trans
4-tert-Butylcyclohexyl Acetate (cis- and trans- mixture)
UNII-21EUM2B8UC component MBZRJSQZCBXRGK-PHIMTYICSA-N
UNII-21EUM2B8UC component MBZRJSQZCBXRGK-XYPYZODXSA-N
4-tert-Butylcyclohexyl acetate, mixture of cis and trans, 99%

> <TPSA>
26.3

> <TotalAidCount>
252

> <TotalFormalCharge>
0

> <XLogP>
3.4

> <database>
PubChem Compound

> <matchingCount>
176

> <primaryID>
36081

> <queryTranslation>
7628[CompoundID] OR 244[CompoundID] OR 25059[CompoundID] OR 7618[CompoundID] OR 7641[CompoundID] OR 5053[CompoundID] OR 637511[CompoundID] OR 7714[CompoundID] OR 7762[CompoundID] OR 25429[CompoundID]
OR 8842[CompoundID] OR 7794[CompoundID] OR 637566[CompoundID] OR 7843[CompoundID] OR 174[CompoundID] OR 7870[CompoundID] OR 86102[CompoundID] OR 7888[CompoundID] OR 7896[CompoundID] OR 1140[CompoundID
] OR 8042[CompoundID] OR 8058[CompoundID] OR 8078[CompoundID] OR 8087[CompoundID] OR 8117[CompoundID] OR 8133[CompoundID] OR 115224[CompoundID] OR 8175[CompoundID] OR 8194[CompoundID] OR 445639[Compou
ndID] OR 4944[CompoundID] OR 8294[CompoundID] OR 93541[CompoundID] OR 8360[CompoundID] OR 8363[CompoundID] OR 656612[CompoundID] OR 125098[CompoundID] OR 3352[CompoundID] OR 3303913[CompoundID] OR 648
05[CompoundID] OR 31200[CompoundID] OR 1712058[CompoundID] OR 31236[CompoundID] OR 31239[CompoundID] OR 31265[CompoundID] OR 31266[CompoundID] OR 31276[CompoundID] OR 6950273[CompoundID] OR 518659[Com
poundID] OR 14896[CompoundID] OR 14798[CompoundID] OR 14829[CompoundID] OR 14830[CompoundID] OR 8635[CompoundID] OR 23266[CompoundID] OR 4284[CompoundID] OR 8693[CompoundID] OR 22311[CompoundID] OR 87
59[CompoundID] OR 8785[CompoundID] OR 2723810[CompoundID] OR 8857[CompoundID] OR 3893[CompoundID] OR 9936739[CompoundID] OR 516892[CompoundID] OR 5430[CompoundID] OR 9017[CompoundID] OR 15433[Compound
ID] OR 107720[CompoundID] OR 9552081[CompoundID] OR 164825[CompoundID] OR 10275455[CompoundID] OR 16666[CompoundID] OR 9839306[CompoundID] OR 5282227[CompoundID] OR 23676745[CompoundID] OR 32881[Compo
undID] OR 91581[CompoundID] OR 39800[CompoundID] OR 33344[CompoundID] OR 15962220[CompoundID] OR 33528[CompoundID] OR 5365075[CompoundID] OR 62829[CompoundID] OR 162381[CompoundID] OR 517202[CompoundI
D] OR 6433353[CompoundID] OR 2730[CompoundID] OR 5372405[CompoundID] OR 36081[CompoundID] OR 3120[CompoundID] OR 3017[CompoundID] OR 2969[CompoundID] OR 18827[CompoundID] OR 19518[CompoundID] OR 19658
[CompoundID] OR 38283[CompoundID] OR 2758[CompoundID] OR 10112[CompoundID] OR 10340[CompoundID] OR 712[CompoundID] OR 5794[CompoundID] OR 3347[CompoundID] OR 104150[CompoundID] OR 2912[CompoundID] OR
2450[CompoundID] OR 40326[CompoundID] OR 40585[CompoundID] OR 517055[CompoundID] OR 10913[CompoundID] OR 108242[CompoundID] OR 62097[CompoundID] OR 41679[CompoundID] OR 54680676[CompoundID] OR 62118[C
ompoundID] OR 753[CompoundID] OR 1030[CompoundID] OR 23673837[CompoundID] OR 54678504[CompoundID] OR 11442[CompoundID] OR 11463[CompoundID] OR 22230[CompoundID] OR 440917[CompoundID] OR 6054[CompoundI
D] OR 43234[CompoundID] OR 22629[CompoundID] OR 3039[CompoundID] OR 2735067[CompoundID] OR 6144[CompoundID] OR 702[CompoundID] OR 284[CompoundID] OR 176[CompoundID] OR 91688[CompoundID] OR 22947[Compo
undID] OR 47445[CompoundID] OR 1711973[CompoundID] OR 243[CompoundID] OR 10342051[CompoundID] OR 5281875[CompoundID] OR 3776[CompoundID] OR 6224[CompoundID] OR 104926[CompoundID] OR 8755[CompoundID] O
R 338[CompoundID] OR 123622[CompoundID] OR 23954[CompoundID] OR 6334[CompoundID] OR 2537[CompoundID] OR 24261[CompoundID] OR 23665760[CompoundID] OR 83975[CompoundID] OR 784[CompoundID] OR 24437[Compo
undID] OR 5360315[CompoundID] OR 311[CompoundID] OR 6549[CompoundID] OR 107689[CompoundID] OR 17100[CompoundID] OR 24976875[CompoundID] OR 6654[CompoundID] OR 71245[CompoundID] OR 6442842[CompoundID]
OR 62334[CompoundID] OR 54698175[CompoundID] OR 6328154[CompoundID] OR 24762[CompoundID] OR 440950[CompoundID] OR 7017[CompoundID] OR 5281873[CompoundID] OR 323[CompoundID] OR 5281167[CompoundID] OR 7
175[CompoundID] OR 7292[CompoundID] OR 6335613[CompoundID] OR 7456[CompoundID] OR 7462[CompoundID]

> <resultIndex>
69

> <resultRange>
1-176

> <textQuery>
7628,244,25059,7618,7641,5053,637511,7714,7762,25429,8842,7794,637566,7843,174,7870,86102,7888,7896,1140,8042,8058,8078,8087,8117,8133,115224,8175,8194,445639,4944,8294,93541,8360,8363,656612,125098,3
352,3303913,64805,31200,1712058,31236,31239,31265,31266,31276,6950273,518659,14896,14798,14829,14830,8635,23266,4284,8693,22311,8759,8785,2723810,8857,3893,9936739,516892,5430,9017,15433,107720,955208
1,164825,10275455,16666,9839306,5282227,23676745,32881,91581,39800,33344,15962220,33528,5365075,62829,162381,517202,6433353,2730,5372405,36081,3120,3017,2969,18827,19518,19658,38283,2758,10112,10340,7
12,5794,3347,104150,2912,2450,40326,40585,517055,10913,108242,62097,41679,54680676,62118,753,1030,23673837,54678504,11442,11463,22230,440917,6054,43234,22629,3039,2735067,6144,702,284,176,91688,22947,
47445,1711973,243,10342051,5281875,3776,6224,104926,8755,338,123622,23954,6334,2537,24261,23665760,83975,784,24437,5360315,311,6549,107689,17100,24976875,6654,71245,6442842,62334,54698175,6328154,2476
2,440950,7017,5281873,323,5281167,7175,7292,6335613,7456,7462

$$$$
33,528
  SciTegic10191915303D

 33 33  0  0  0  0            999 V2000
    3.3760    2.8770    0.0200 S   0  0
    1.0040    5.7710    0.2210 O   0  0
    1.8630    3.6330    0.1010 N   0  0
    1.9580    5.0310    0.1590 C   0  0
    3.3630    5.4340    0.1330 C   0  0
    0.6120    2.8820    0.1070 C   0  0
    4.1740    4.3680    0.0610 C   0  0
    0.8420    1.3720    0.0330 C   0  0
   -0.4640    0.5760    0.0390 C   0  0
   -0.2340   -0.9340   -0.0340 C   0  0
   -1.5390   -1.7300   -0.0280 C   0  0
   -1.3100   -3.2400   -0.1020 C   0  0
   -2.6150   -4.0370   -0.0960 C   0  0
   -2.3850   -5.5470   -0.1690 C   0  0
    3.7020    6.4590    0.1680 H   0  0
    0.0370    3.1410    0.9960 H   0  0
   -0.0170    3.2170   -0.7180 H   0  0
    5.2460    4.4960    0.0330 H   0  0
    1.4450    1.1160   -0.8380 H   0  0
    1.4980    1.0420    0.8390 H   0  0
   -1.0670    0.8320    0.9100 H   0  0
   -1.1200    0.9050   -0.7660 H   0  0
    0.3690   -1.1900   -0.9050 H   0  0
    0.4220   -1.2640    0.7710 H   0  0
   -2.1430   -1.4750    0.8430 H   0  0
   -2.1950   -1.4010   -0.8340 H   0  0
   -0.7060   -3.4960   -0.9730 H   0  0
   -0.6530   -3.5700    0.7040 H   0  0
   -3.2180   -3.7800    0.7750 H   0  0
   -3.2710   -3.7070   -0.9020 H   0  0
   -3.3340   -6.0820   -0.1530 H   0  0
   -1.8430   -5.8100   -1.0770 H   0  0
   -1.7960   -5.8880    0.6820 H   0  0
  1  3  1  0
  1  7  1  0
  2  4  2  0
  3  4  1  0
  3  6  1  0
  4  5  1  0
  5  7  2  0
  6  8  1  0
  8  9  1  0
  9 10  1  0
 10 11  1  0
 11 12  1  0
 12 13  1  0
 13 14  1  0
  5 15  1  0
  6 16  1  0
  6 17  1  0
  7 18  1  0
  8 19  1  0
  8 20  1  0
  9 21  1  0
  9 22  1  0
 10 23  1  0
 10 24  1  0
 11 25  1  0
 11 26  1  0
 12 27  1  0
 12 28  1  0
 13 29  1  0
 13 30  1  0
 14 31  1  0
 14 32  1  0
 14 33  1  0
M  END
> <Name>
33,528

> <OBJECTID>
9223372337505828875

> <ActiveAidCount>
202

> <AtomChiralCount>
0

> <AtomChiralDefCount>
0

> <AtomChiralUndefCount>
0

> <BondChiralCount>
0

> <BondChiralDefCount>
0

> <BondChiralUndefCount>
0

> <CID>
33528

> <CanonicalSmiles>
CCCCCCCCN1C(=O)C=CS1

> <Complexity>
204

> <CovalentUnitCount>
1

> <CreateDate>
2005/03/27 00:00

> <HeavyAtomCount>
14

> <HydrogenBondAcceptorCount>
2

> <HydrogenBondDonorCount>
0

> <IUPACName>
2-octyl-1,2-thiazol-3-one

> <InChI>
InChI=1S/C11H19NOS/c1-2-3-4-5-6-7-9-12-11(13)8-10-14-12/h8,10H,2-7,9H2,1H3

> <InChIKey>
JPMIIZHYYWMHDT-UHFFFAOYSA-N

> <IsomericSmiles>
CCCCCCCCN1C(=O)C=CS1

> <IsotopeAtomCount>
0

> <MeSHHeading>
2-n-octyl-4-isothiazolin-3-one

> <MeSHTerm>
2-n-octyl-4-isothiazolin-3-one
Skane M-8
2-n-octyl-4-isothiazolin-3-one hydrochloride
2-octyl-4-isothiazolin-3-one
octhilinone
2-octyl-3-isothiazolone
Kathon 893

> <MolecularFormula>
C11H19NOS

> <MolecularWeight>
213.34

> <RotatableBondCount>
7

> <Smiles>
S1C=CC(N1CCCCCCCC)=O

> <SourceCategory>
Chemical Vendors
Legacy Depositors
Research and Development
Curation Efforts
Governmental Organizations
Subscription Services
Journal Publishers
NIH Initiatives

> <Synonym>
Octhilinone
26530-20-1
2-octylisothiazol-3(2H)-one
2-n-Octyl-4-isothiazolin-3-one
2-Octyl-4-isothiazolin-3-one
2-Octyl-3-isothiazolone
Pancil
2-Octyl-2H-isothiazol-3-one
Kathon 893
2-Octyl-3(2H)-isothiazolone
Skane 8
3(2H)-Isothiazolone, 2-octyl-
Skane M-8
Kathon 893F
Micro-chek skane
Kathon LM
Microbicide M-8
Micro-chek 11
Micro-chek 11D
Kathon SP 70
Kathon LP preservative
Kathon 4200
Pancil-T
Skane M8
Caswell No. 613C
Kathon
4-Isothiazolin-3-one, 2-octyl-
UNII-4LFS24GD0V
Vinylzene IT 3000DIDP
Octyl-3(2H)-isothiazolone
RH 893
2-octyl-1,2-thiazol-3-one
Octhilinone [ANSI:BSI:ISO]
CCRIS 6082
EINECS 247-761-7
2-Octyl-3-isothioazolone
N-Octyl-isothiazol-3-one
2-Octyl-3-isothiazolinone
Octyl-4-isothiazol-3-one
EPA Pesticide Chemical Code 099901
2-n-Octyl-3-isothiazolone
BRN 1211137
4LFS24GD0V
MLS002415697
CHEBI:81936
JPMIIZHYYWMHDT-UHFFFAOYSA-N
SMR001370885
DSSTox_CID_5805
DSSTox_RID_77928
DSSTox_GSID_25805
W-107168
CAS-26530-20-1
C11H19NOS
Pancil T
Skane M 8
2-octylisothiazol-3-one
ACMC-1CDE4
Vinyzene IT 3000DIDP
AC1L1PS2
SCHEMBL15648
cid_33528
KSC163A4D
SCHEMBL396433
Jsp005029
CHEMBL1562104
DTXSID1025805
BDBM66023
KS-00000ZYZ
ZINC2012904
2-octyl-1,2-thiazol-3(2H)-one
Tox21_201459
Tox21_300566
ANW-26014
MFCD00072473
RH-893
SD 888
AKOS015897428
LS-1106
RTR-012025
TRA0009500
ACM25339531
ACM26530201
NCGC00091875-01
NCGC00091875-02
NCGC00091875-03
NCGC00091875-04
NCGC00091875-05
NCGC00254466-01
NCGC00259010-01
AK109069
AN-24752
AS-11894
CC-11727
Octhilinone 10 microg/mL in Acetonitrile
2-Octyl-3(2H)-isothiazolone, Octhilinone
AX8013468
DB-028182
TR-012025
FT-0613248
O0343
O0378
ST24028121
C18752
K-6861
530O201
C-24530
I09-0070
2-Octyl-4-isothiazolin-3-one, PESTANAL(R), analytical standard

> <TPSA>
45.6

> <TotalAidCount>
776

> <TotalFormalCharge>
0

> <XLogP>
3.5

> <database>
PubChem Compound

> <matchingCount>
176

> <primaryID>
33528

> <queryTranslation>
7628[CompoundID] OR 244[CompoundID] OR 25059[CompoundID] OR 7618[CompoundID] OR 7641[CompoundID] OR 5053[CompoundID] OR 637511[CompoundID] OR 7714[CompoundID] OR 7762[CompoundID] OR 25429[CompoundID]
OR 8842[CompoundID] OR 7794[CompoundID] OR 637566[CompoundID] OR 7843[CompoundID] OR 174[CompoundID] OR 7870[CompoundID] OR 86102[CompoundID] OR 7888[CompoundID] OR 7896[CompoundID] OR 1140[CompoundID
] OR 8042[CompoundID] OR 8058[CompoundID] OR 8078[CompoundID] OR 8087[CompoundID] OR 8117[CompoundID] OR 8133[CompoundID] OR 115224[CompoundID] OR 8175[CompoundID] OR 8194[CompoundID] OR 445639[Compou
ndID] OR 4944[CompoundID] OR 8294[CompoundID] OR 93541[CompoundID] OR 8360[CompoundID] OR 8363[CompoundID] OR 656612[CompoundID] OR 125098[CompoundID] OR 3352[CompoundID] OR 3303913[CompoundID] OR 648
05[CompoundID] OR 31200[CompoundID] OR 1712058[CompoundID] OR 31236[CompoundID] OR 31239[CompoundID] OR 31265[CompoundID] OR 31266[CompoundID] OR 31276[CompoundID] OR 6950273[CompoundID] OR 518659[Com
poundID] OR 14896[CompoundID] OR 14798[CompoundID] OR 14829[CompoundID] OR 14830[CompoundID] OR 8635[CompoundID] OR 23266[CompoundID] OR 4284[CompoundID] OR 8693[CompoundID] OR 22311[CompoundID] OR 87
59[CompoundID] OR 8785[CompoundID] OR 2723810[CompoundID] OR 8857[CompoundID] OR 3893[CompoundID] OR 9936739[CompoundID] OR 516892[CompoundID] OR 5430[CompoundID] OR 9017[CompoundID] OR 15433[Compound
ID] OR 107720[CompoundID] OR 9552081[CompoundID] OR 164825[CompoundID] OR 10275455[CompoundID] OR 16666[CompoundID] OR 9839306[CompoundID] OR 5282227[CompoundID] OR 23676745[CompoundID] OR 32881[Compo
undID] OR 91581[CompoundID] OR 39800[CompoundID] OR 33344[CompoundID] OR 15962220[CompoundID] OR 33528[CompoundID] OR 5365075[CompoundID] OR 62829[CompoundID] OR 162381[CompoundID] OR 517202[CompoundI
D] OR 6433353[CompoundID] OR 2730[CompoundID] OR 5372405[CompoundID] OR 36081[CompoundID] OR 3120[CompoundID] OR 3017[CompoundID] OR 2969[CompoundID] OR 18827[CompoundID] OR 19518[CompoundID] OR 19658
[CompoundID] OR 38283[CompoundID] OR 2758[CompoundID] OR 10112[CompoundID] OR 10340[CompoundID] OR 712[CompoundID] OR 5794[CompoundID] OR 3347[CompoundID] OR 104150[CompoundID] OR 2912[CompoundID] OR
2450[CompoundID] OR 40326[CompoundID] OR 40585[CompoundID] OR 517055[CompoundID] OR 10913[CompoundID] OR 108242[CompoundID] OR 62097[CompoundID] OR 41679[CompoundID] OR 54680676[CompoundID] OR 62118[C
ompoundID] OR 753[CompoundID] OR 1030[CompoundID] OR 23673837[CompoundID] OR 54678504[CompoundID] OR 11442[CompoundID] OR 11463[CompoundID] OR 22230[CompoundID] OR 440917[CompoundID] OR 6054[CompoundI
D] OR 43234[CompoundID] OR 22629[CompoundID] OR 3039[CompoundID] OR 2735067[CompoundID] OR 6144[CompoundID] OR 702[CompoundID] OR 284[CompoundID] OR 176[CompoundID] OR 91688[CompoundID] OR 22947[Compo
undID] OR 47445[CompoundID] OR 1711973[CompoundID] OR 243[CompoundID] OR 10342051[CompoundID] OR 5281875[CompoundID] OR 3776[CompoundID] OR 6224[CompoundID] OR 104926[CompoundID] OR 8755[CompoundID] O
R 338[CompoundID] OR 123622[CompoundID] OR 23954[CompoundID] OR 6334[CompoundID] OR 2537[CompoundID] OR 24261[CompoundID] OR 23665760[CompoundID] OR 83975[CompoundID] OR 784[CompoundID] OR 24437[Compo
undID] OR 5360315[CompoundID] OR 311[CompoundID] OR 6549[CompoundID] OR 107689[CompoundID] OR 17100[CompoundID] OR 24976875[CompoundID] OR 6654[CompoundID] OR 71245[CompoundID] OR 6442842[CompoundID]
OR 62334[CompoundID] OR 54698175[CompoundID] OR 6328154[CompoundID] OR 24762[CompoundID] OR 440950[CompoundID] OR 7017[CompoundID] OR 5281873[CompoundID] OR 323[CompoundID] OR 5281167[CompoundID] OR 7
175[CompoundID] OR 7292[CompoundID] OR 6335613[CompoundID] OR 7456[CompoundID] OR 7462[CompoundID]

> <resultIndex>
70

> <resultRange>
1-176

> <textQuery>
7628,244,25059,7618,7641,5053,637511,7714,7762,25429,8842,7794,637566,7843,174,7870,86102,7888,7896,1140,8042,8058,8078,8087,8117,8133,115224,8175,8194,445639,4944,8294,93541,8360,8363,656612,125098,3
352,3303913,64805,31200,1712058,31236,31239,31265,31266,31276,6950273,518659,14896,14798,14829,14830,8635,23266,4284,8693,22311,8759,8785,2723810,8857,3893,9936739,516892,5430,9017,15433,107720,955208
1,164825,10275455,16666,9839306,5282227,23676745,32881,91581,39800,33344,15962220,33528,5365075,62829,162381,517202,6433353,2730,5372405,36081,3120,3017,2969,18827,19518,19658,38283,2758,10112,10340,7
12,5794,3347,104150,2912,2450,40326,40585,517055,10913,108242,62097,41679,54680676,62118,753,1030,23673837,54678504,11442,11463,22230,440917,6054,43234,22629,3039,2735067,6144,702,284,176,91688,22947,
47445,1711973,243,10342051,5281875,3776,6224,104926,8755,338,123622,23954,6334,2537,24261,23665760,83975,784,24437,5360315,311,6549,107689,17100,24976875,6654,71245,6442842,62334,54698175,6328154,2476
2,440950,7017,5281873,323,5281167,7175,7292,6335613,7456,7462

$$$$
32,881
  SciTegic10191915303D

 23 22  0  0  1  0            999 V2000
    3.4040   -0.3940   -1.6050 O   0  0
    2.0760    0.0780   -1.6190 C   0  0
    1.4000   -0.3570   -0.3180 C   0  0  3  0  0  0
    0.0210   -0.0840   -0.4260 O   0  0
   -0.7360   -0.6330    0.6290 C   0  0
   -2.2170   -0.4240    0.3130 C   0  0  3  0  0  0
   -2.9770   -1.1210    1.2740 O   0  0
   -2.6270    1.0490    0.3580 C   0  0
    1.9410    0.3850    0.9040 C   0  0
    3.8180   -0.1090   -2.4350 H   0  0
    2.1050    1.1660   -1.6930 H   0  0
    1.5700   -0.3550   -2.4800 H   0  0
    1.4840   -1.4350   -0.1840 H   0  0
   -0.5040   -1.6950    0.6970 H   0  0
   -0.4630   -0.1170    1.5490 H   0  0
   -2.4630   -0.8260   -0.6700 H   0  0
   -3.8970   -1.1230    0.9670 H   0  0
   -3.6920    1.1580    0.1500 H   0  0
   -2.4100    1.4810    1.3340 H   0  0
   -2.0820    1.6230   -0.3910 H   0  0
    1.6070   -0.0720    1.8380 H   0  0
    1.6070    1.4220    0.9040 H   0  0
    3.0310    0.3850    0.9040 H   0  0
  1  2  1  0
  2  3  1  0
  3  4  1  0
  3  9  1  0
  4  5  1  0
  5  6  1  0
  6  7  1  0
  6  8  1  0
  1 10  1  0
  2 11  1  0
  2 12  1  0
  3 13  1  0
  5 14  1  0
  5 15  1  0
  6 16  1  0
  7 17  1  0
  8 18  1  0
  8 19  1  0
  8 20  1  0
  9 21  1  0
  9 22  1  0
  9 23  1  0
M  END
> <Name>
32,881

> <OBJECTID>
9223372341800796171

> <ActiveAidCount>
0

> <AtomChiralCount>
2

> <AtomChiralDefCount>
0

> <AtomChiralUndefCount>
2

> <BondChiralCount>
0

> <BondChiralDefCount>
0

> <BondChiralUndefCount>
0

> <CID>
32881

> <CanonicalSmiles>
CC(CO)OCC(C)O

> <Complexity>
65.3

> <CovalentUnitCount>
1

> <CreateDate>
2005/03/27 00:00

> <HeavyAtomCount>
9

> <HydrogenBondAcceptorCount>
3

> <HydrogenBondDonorCount>
2

> <IUPACName>
2-(2-hydroxypropoxy)propan-1-ol

> <InChI>
InChI=1S/C6H14O3/c1-5(8)4-9-6(2)3-7/h5-8H,3-4H2,1-2H3

> <InChIKey>
DUFKCOQISQKSAV-UHFFFAOYSA-N

> <IsomericSmiles>
CC(CO)OCC(C)O

> <IsotopeAtomCount>
0

> <MeSHHeading>
2-(2-hydroxypropoxy)-1-propanol

> <MeSHTerm>
2-(2-hydroxypropoxy)-1-propanol

> <MolecularFormula>
C6H14O3

> <MolecularWeight>
134.17

> <RotatableBondCount>
4

> <Smiles>
OCC(C)OCC(C)O

> <SourceCategory>
Legacy Depositors
Chemical Vendors
Research and Development
Curation Efforts
Governmental Organizations
NIH Initiatives
Subscription Services
Journal Publishers

> <Synonym>
Polypropylene glycol
2-(2-hydroxypropoxy)propan-1-ol
2-(2-HYDROXYPROPOXY)-1-PROPANOL
Polyoxypropylene
Emkapyl
Lineartop E
Niax ppg
25265-71-8
Polyoxypropylene glycol
Methyloxirane homopolymer
Desmophen 360C
106-62-7
Polyglycol P 400
Poly(propylene oxide)
Niax ppg 425
Jeffox PPG 400
Polyglycol P-2000
Polyglycol P-4000
Laprol 2002
Niax ppg 1025
Niax ppg 3025
Polyglycol type P250
Polyglycol type P400
Polyglycol type P750
Voranol P 1010
Napter E 8075
Polymer 2
Niax polyol ppg 4025
Polyglycol type P1200
Polyglycol type P2000
Polyglycol type P3000
25322-69-4
Propylene oxide homopolymer
Pluracol 1010
Pluracol 2010
Pluracol P 410
Propylan 8123
Laprol 702
Caswell No. 680
Glycols, polypropylene
Pluracol P 2010
1-Propanol, 2-(2-hydroxypropoxy)-
Voranol P 2000
Voranol P 4000
Alkapal PPG-1200
Alkapal PPG-2000
Alkapal PPG-4000
Actocol 51-530
P 4000 (polymer)
Polypropylenglykol [Czech]
alpha-Hydro-omega-hydroxypoly(oxypropylene)
Niax 1025
Oopg 1000
Polypropylene glycol #400
Polypropylene glycol #425
Polypropylene glycol #750
Polypropylene glycol 1025
Niax 11-27
PPG-9
Polypropylene glycol #1200
2-(2-Hydroxypropoxy)propanol
Niax 61-582
Oxirane, methyl-, homopolymer
PPG-12
PPG-15
PPG-17
PPG-20
PPG-26
PPG-30
PPG-34
Propylene oxide, propylene glycol polymer
Polyoxypropylene (9)
HSDB 1266
Polyoxypropylene (12)
Polyoxypropylene (15)
Polyoxypropylene (17)
Polyoxypropylene (20)
Polyoxypropylene (26)
Polyoxypropylene (30)
Polyoxypropylene (34)
Polypropylene glycol (9)
Polypropylene glycol 150
SKF 18667
EPA Pesticide Chemical Code 068602
P.P.G 2025
P.P.G 3025
P.P.G 4025
P.P.G. 150
P.P.G. 400
P.P.G. 425
P.P.G. 750
Polypropylene glycol (12)
Polypropylene glycol (15)
Polypropylene glycol (17)
Polypropylene glycol (20)
Polypropylene glycol (26)
Polypropylene glycol (30)
Polypropylene glycol (34)
Polypropylene glycol 2000
Polypropylene glycol 2025
Polypropylene glycol 3025
Polypropylene glycol 4000
Polypropylene glycol 4025
P.P.G. 1000
P.P.G. 1025
P.P.G. 1200
P.P.G. 1800
Polypropylene glycol #1000
Polypropylene glycol #1800
alpha-Hydro-omega-hydroxypoly(oxy(methyl-1,2-ethanediyl))
P 400
Polypropylene glycol (m w 1,200-3,000)
DUFKCOQISQKSAV-UHFFFAOYSA-N
Poly(oxy(methyl-1,2-ethanediyl)), alpha-hydro-omega-hydroxy-
Polypropylenglykol
Poly(propylene glycol), average M.W. 425
Poly(propylene glycol)
Poly(propylene glycol), average M.W. 2.000
Poly(propylene glycol), average M.W. 4.000
UNII-HW7M6WY97M
UNII-I29VQH0G0B
UNII-V86KZL3H2Z
UNII-GK69D49CJ0
UNII-GS1E37J3P8
UNII-H5B6JCZ906
UNII-OV0Q322E0U
UNII-SJG6V595V6
2-Methyl-3-oxahexane-1,5-diol
UNII-01SEY4236K
UNII-439253FIWJ
UNII-9UO53X55W2
UNII-L63N6V755Z
Propane-1,2-diol, propoxylated
UNII-757HA1493R
polypropylene oxide
EINECS 203-416-2
PPG?
ACMC-1CHH9
EC 500-039-8
AC1L1OM3
HW7M6WY97M
I29VQH0G0B
V86KZL3H2Z
SCHEMBL15111
GK69D49CJ0
GS1E37J3P8
H5B6JCZ906
OV0Q322E0U
SJG6V595V6
CHEBI:53262
CTK1A2457
KS-00000ZWS
DTXSID30861722
01SEY4236K
439253FIWJ
9UO53X55W2
L63N6V755Z
poly(propylene glycol) macromolecule
Dipropylene Glycol,mixture of isomers
AKOS015899603
757HA1493R
FCH2341558
FFG0000010
TRA0011356
AK177740
LS-87596
RT-004571
900-EP2380568A1
FT-0696553
2687-EP2270004A1
2687-EP2270005A1
2687-EP2277876A1
2687-EP2281810A1
2687-EP2292614A1
2687-EP2295412A1
2687-EP2295413A1
2687-EP2295430A2
2687-EP2295431A2
2687-EP2295550A2
2687-EP2298783A1
2687-EP2305658A1
2687-EP2308844A2
2687-EP2308845A2
2687-EP2308846A2
2687-EP2308857A1
2687-EP2316835A1
2806-EP2269996A1
2806-EP2272491A1
2806-EP2272849A1
2806-EP2284165A1
2806-EP2292597A1
2806-EP2295399A2
2806-EP2295438A1
2806-EP2301927A1
2806-EP2308857A1
2806-EP2314577A1
2806-EP2371809A1
2806-EP2372017A1
2806-EP2374787A1
2806-EP2377848A1
2806-EP2380568A1
2806-EP2380873A1
106H627
alpha-hydro-omega-hydroxypoly[oxy(1-methylethylene)]
I14-11177
I14-113266

> <TPSA>
49.7

> <TotalAidCount>
0

> <TotalFormalCharge>
0

> <XLogP>
-0.7

> <database>
PubChem Compound

> <matchingCount>
176

> <primaryID>
32881

> <queryTranslation>
7628[CompoundID] OR 244[CompoundID] OR 25059[CompoundID] OR 7618[CompoundID] OR 7641[CompoundID] OR 5053[CompoundID] OR 637511[CompoundID] OR 7714[CompoundID] OR 7762[CompoundID] OR 25429[CompoundID]
OR 8842[CompoundID] OR 7794[CompoundID] OR 637566[CompoundID] OR 7843[CompoundID] OR 174[CompoundID] OR 7870[CompoundID] OR 86102[CompoundID] OR 7888[CompoundID] OR 7896[CompoundID] OR 1140[CompoundID
] OR 8042[CompoundID] OR 8058[CompoundID] OR 8078[CompoundID] OR 8087[CompoundID] OR 8117[CompoundID] OR 8133[CompoundID] OR 115224[CompoundID] OR 8175[CompoundID] OR 8194[CompoundID] OR 445639[Compou
ndID] OR 4944[CompoundID] OR 8294[CompoundID] OR 93541[CompoundID] OR 8360[CompoundID] OR 8363[CompoundID] OR 656612[CompoundID] OR 125098[CompoundID] OR 3352[CompoundID] OR 3303913[CompoundID] OR 648
05[CompoundID] OR 31200[CompoundID] OR 1712058[CompoundID] OR 31236[CompoundID] OR 31239[CompoundID] OR 31265[CompoundID] OR 31266[CompoundID] OR 31276[CompoundID] OR 6950273[CompoundID] OR 518659[Com
poundID] OR 14896[CompoundID] OR 14798[CompoundID] OR 14829[CompoundID] OR 14830[CompoundID] OR 8635[CompoundID] OR 23266[CompoundID] OR 4284[CompoundID] OR 8693[CompoundID] OR 22311[CompoundID] OR 87
59[CompoundID] OR 8785[CompoundID] OR 2723810[CompoundID] OR 8857[CompoundID] OR 3893[CompoundID] OR 9936739[CompoundID] OR 516892[CompoundID] OR 5430[CompoundID] OR 9017[CompoundID] OR 15433[Compound
ID] OR 107720[CompoundID] OR 9552081[CompoundID] OR 164825[CompoundID] OR 10275455[CompoundID] OR 16666[CompoundID] OR 9839306[CompoundID] OR 5282227[CompoundID] OR 23676745[CompoundID] OR 32881[Compo
undID] OR 91581[CompoundID] OR 39800[CompoundID] OR 33344[CompoundID] OR 15962220[CompoundID] OR 33528[CompoundID] OR 5365075[CompoundID] OR 62829[CompoundID] OR 162381[CompoundID] OR 517202[CompoundI
D] OR 6433353[CompoundID] OR 2730[CompoundID] OR 5372405[CompoundID] OR 36081[CompoundID] OR 3120[CompoundID] OR 3017[CompoundID] OR 2969[CompoundID] OR 18827[CompoundID] OR 19518[CompoundID] OR 19658
[CompoundID] OR 38283[CompoundID] OR 2758[CompoundID] OR 10112[CompoundID] OR 10340[CompoundID] OR 712[CompoundID] OR 5794[CompoundID] OR 3347[CompoundID] OR 104150[CompoundID] OR 2912[CompoundID] OR
2450[CompoundID] OR 40326[CompoundID] OR 40585[CompoundID] OR 517055[CompoundID] OR 10913[CompoundID] OR 108242[CompoundID] OR 62097[CompoundID] OR 41679[CompoundID] OR 54680676[CompoundID] OR 62118[C
ompoundID] OR 753[CompoundID] OR 1030[CompoundID] OR 23673837[CompoundID] OR 54678504[CompoundID] OR 11442[CompoundID] OR 11463[CompoundID] OR 22230[CompoundID] OR 440917[CompoundID] OR 6054[CompoundI
D] OR 43234[CompoundID] OR 22629[CompoundID] OR 3039[CompoundID] OR 2735067[CompoundID] OR 6144[CompoundID] OR 702[CompoundID] OR 284[CompoundID] OR 176[CompoundID] OR 91688[CompoundID] OR 22947[Compo
undID] OR 47445[CompoundID] OR 1711973[CompoundID] OR 243[CompoundID] OR 10342051[CompoundID] OR 5281875[CompoundID] OR 3776[CompoundID] OR 6224[CompoundID] OR 104926[CompoundID] OR 8755[CompoundID] O
R 338[CompoundID] OR 123622[CompoundID] OR 23954[CompoundID] OR 6334[CompoundID] OR 2537[CompoundID] OR 24261[CompoundID] OR 23665760[CompoundID] OR 83975[CompoundID] OR 784[CompoundID] OR 24437[Compo
undID] OR 5360315[CompoundID] OR 311[CompoundID] OR 6549[CompoundID] OR 107689[CompoundID] OR 17100[CompoundID] OR 24976875[CompoundID] OR 6654[CompoundID] OR 71245[CompoundID] OR 6442842[CompoundID]
OR 62334[CompoundID] OR 54698175[CompoundID] OR 6328154[CompoundID] OR 24762[CompoundID] OR 440950[CompoundID] OR 7017[CompoundID] OR 5281873[CompoundID] OR 323[CompoundID] OR 5281167[CompoundID] OR 7
175[CompoundID] OR 7292[CompoundID] OR 6335613[CompoundID] OR 7456[CompoundID] OR 7462[CompoundID]

> <resultIndex>
72

> <resultRange>
1-176

> <textQuery>
7628,244,25059,7618,7641,5053,637511,7714,7762,25429,8842,7794,637566,7843,174,7870,86102,7888,7896,1140,8042,8058,8078,8087,8117,8133,115224,8175,8194,445639,4944,8294,93541,8360,8363,656612,125098,3
352,3303913,64805,31200,1712058,31236,31239,31265,31266,31276,6950273,518659,14896,14798,14829,14830,8635,23266,4284,8693,22311,8759,8785,2723810,8857,3893,9936739,516892,5430,9017,15433,107720,955208
1,164825,10275455,16666,9839306,5282227,23676745,32881,91581,39800,33344,15962220,33528,5365075,62829,162381,517202,6433353,2730,5372405,36081,3120,3017,2969,18827,19518,19658,38283,2758,10112,10340,7
12,5794,3347,104150,2912,2450,40326,40585,517055,10913,108242,62097,41679,54680676,62118,753,1030,23673837,54678504,11442,11463,22230,440917,6054,43234,22629,3039,2735067,6144,702,284,176,91688,22947,
47445,1711973,243,10342051,5281875,3776,6224,104926,8755,338,123622,23954,6334,2537,24261,23665760,83975,784,24437,5360315,311,6549,107689,17100,24976875,6654,71245,6442842,62334,54698175,6328154,2476
2,440950,7017,5281873,323,5281167,7175,7292,6335613,7456,7462

$$$$
31,276
  SciTegic10191915303D

 23 22  0  0  0  0            999 V2000
    0.4340    0.4200    1.7890 O   0  0
   -0.6620   -1.0840    3.0350 O   0  0
    0.0470   -0.1090    2.9450 C   0  0
   -0.0800   -0.2850    0.6700 C   0  0
    0.4020    0.3790   -0.6190 C   0  0
   -0.0390   -0.3770   -1.8730 C   0  0
    0.5590    0.5920    4.1760 C   0  0
   -1.5510   -0.3200   -2.0940 C   0  0
    0.7540    0.0290   -3.1150 C   0  0
    0.2680   -1.3170    0.7280 H   0  0
   -1.1700   -0.2700    0.7280 H   0  0
    0.0800    1.4180   -0.6620 H   0  0
    1.4860    0.5020   -0.6060 H   0  0
    0.3090   -1.4100   -1.8440 H   0  0
    0.2270    0.1350    5.1070 H   0  0
    0.2270    1.6290    4.1760 H   0  0
    1.6490    0.5920    4.1760 H   0  0
   -1.8480   -0.8380   -3.0060 H   0  0
   -1.8910    0.7110   -2.1680 H   0  0
   -2.0780   -0.7870   -1.2620 H   0  0
    0.4710   -0.5840   -3.9710 H   0  0
    0.5820    1.0780   -3.3580 H   0  0
    1.8240   -0.1020   -2.9510 H   0  0
  1  3  1  0
  1  4  1  0
  2  3  2  0
  3  7  1  0
  4  5  1  0
  5  6  1  0
  6  8  1  0
  6  9  1  0
  4 10  1  0
  4 11  1  0
  5 12  1  0
  5 13  1  0
  6 14  1  0
  7 15  1  0
  7 16  1  0
  7 17  1  0
  8 18  1  0
  8 19  1  0
  8 20  1  0
  9 21  1  0
  9 22  1  0
  9 23  1  0
M  END
> <Name>
31,276

> <OBJECTID>
9223372346095763467

> <ActiveAidCount>
4

> <AtomChiralCount>
0

> <AtomChiralDefCount>
0

> <AtomChiralUndefCount>
0

> <BondChiralCount>
0

> <BondChiralDefCount>
0

> <BondChiralUndefCount>
0

> <CID>
31276

> <CanonicalSmiles>
CC(C)CCOC(=O)C

> <Complexity>
86.9

> <CovalentUnitCount>
1

> <CreateDate>
2005/03/26 00:00

> <HeavyAtomCount>
9

> <HydrogenBondAcceptorCount>
2

> <HydrogenBondDonorCount>
0

> <IUPACName>
3-methylbutyl acetate

> <InChI>
InChI=1S/C7H14O2/c1-6(2)4-5-9-7(3)8/h6H,4-5H2,1-3H3

> <InChIKey>
MLFHJEHSLIIPHL-UHFFFAOYSA-N

> <IsomericSmiles>
CC(C)CCOC(=O)C

> <IsotopeAtomCount>
0

> <MeSHHeading>
isoamyl acetate

> <MeSHTerm>
isoamyl acetate
isopentylacetate
isopentyl acetate

> <MolecularFormula>
C7H14O2

> <MolecularWeight>
130.18

> <RotatableBondCount>
4

> <Smiles>
O(CCC(C)C)C(C)=O

> <SourceCategory>
Chemical Vendors
Legacy Depositors
Research and Development
Curation Efforts
Governmental Organizations
NIH Initiatives
Subscription Services
Journal Publishers

> <Synonym>
ISOAMYL ACETATE
3-Methylbutyl acetate
Isopentyl acetate
123-92-2
Isopentyl ethanoate
Pear oil
3-Methylbutyl ethanoate
Isoamyl ethanoate
Banana oil
Iso-amyl acetate
3-Methyl-1-butyl acetate
I-Amyl acetate
3-Methyl-1-butanol acetate
Isopentyl alcohol, acetate
Amylacetic ester
2-Methylbutyl ethanoate
Acetic acid, isopentyl ester
Amyl acetate, common
1-Butanol, 3-methyl-, acetate
Acetic acid, 3-methylbutyl ester
3-Methyl-1-butanol, acetate
Acetic acid 3-methylbutyl ester
1-Butanol, 3-methyl-, 1-acetate
beta-Methylbutyl acetate
FEMA Number 2055
Bananan Oil
Isoamyl acetate (natural)
Isoamylester kyseliny octove
NSC 9260
MFCD00008946
FEMA No. 2055
CCRIS 6051
HSDB 1818
Isopentyl Alcohol Acetate
EINECS 204-662-3
Isoamylester kyseliny octove [Czech]
UNII-Z135787824
Acetic Acid Isoamyl Ester
3-methyl-but-1-yl acetate
3-Methyl-1-butanyl acetate
BRN 1744750
AI3-00576
CHEBI:31725
3-Methyl butyl ester acetic acid
MLFHJEHSLIIPHL-UHFFFAOYSA-N
CH3C(O)O(CH2)2CH(CH3)2
DSSTox_CID_5453
DSSTox_RID_77792
In Commercial practice amyl invariably means isoamyl, unless it is prefaced by the n- for normal
DSSTox_GSID_25453
Isoamyl acetate, 99+%, pure
Z135787824
CAS-123-92-2
acetic acid isopentyl ester
i-pentylacetate
pear essence
Isoamyl acetate
acetate d'isoamyle
Amyl acetate ester
3-Methylbutyl ester of acetic acid
acetate d'isopentyle
Nat. Isoamyl Acetate
ACMC-1BTOS
AC1L1LAP
beta-Methyl butyl acetate
Iso Amyl Acetate Natural
acetate de 3-methylbutyle
Acetic acid, isoamyl ester
EC 204-662-3
Isopentyl ester acetic acid
.beta.-Methyl butyl acetate
SCHEMBL27086
4-02-00-00157 (Beilstein Handbook Reference)
KSC176A6P
MLS002454411
CHEMBL42013
QSPL 103
acetic acid-3-methylbutyl ester
Jsp001596
DTXSID9025453
CTK0H6067
FEMA 2055
acetic acid 3-methyl butyl ester
NSC9260
Isopentyl acetate, LR, >=95%
Acetic Acid 3-Methyl-Butyl Ester
HMS2270G21
WLN: 1Y1 & 2OV1
ZINC388082
Jargonelle pear essence (Salt/Mix)
NSC-9260
Tox21_201257
Tox21_300373
7794AF
ANW-18175
LS-687
SBB040873
STL280371
Isopentyl acetate, analytical standard
AKOS000269068
Isoamyl acetate, >=95%, FCC, FG
Isopentyl acetate, anhydrous, >=99%
FCH1113855
Isopentyl acetate, reagent grade, 98%
MCULE-3274854886
RL01089
RTR-003728
TRA0038611
KS-00000Z10
NCGC00091500-01
NCGC00091500-02
NCGC00091500-03
NCGC00254385-01
NCGC00258809-01
AN-22930
CJ-03104
SC-22806
SMR001253743
ZB011273
TR-003728
A0033
A0264
FT-0621746
ST50214469
Isoamyl acetate, natural, >=97%, FCC, FG
C12296
Isopentyl acetate, SAJ first grade, >=93.0%
Isopentyl acetate, SAJ special grade, >=98.0%
189067-EP2269986A1
A805166
I14-2590
J-004996
Isopentyl acetate, 99%, cont. ca 10% other isomers
Isoamyl acetate, natural, 70% isoamyl acetate basis, >=97%

> <TPSA>
26.3

> <TotalAidCount>
713

> <TotalFormalCharge>
0

> <XLogP>
2

> <database>
PubChem Compound

> <matchingCount>
176

> <primaryID>
31276

> <queryTranslation>
7628[CompoundID] OR 244[CompoundID] OR 25059[CompoundID] OR 7618[CompoundID] OR 7641[CompoundID] OR 5053[CompoundID] OR 637511[CompoundID] OR 7714[CompoundID] OR 7762[CompoundID] OR 25429[CompoundID]
OR 8842[CompoundID] OR 7794[CompoundID] OR 637566[CompoundID] OR 7843[CompoundID] OR 174[CompoundID] OR 7870[CompoundID] OR 86102[CompoundID] OR 7888[CompoundID] OR 7896[CompoundID] OR 1140[CompoundID
] OR 8042[CompoundID] OR 8058[CompoundID] OR 8078[CompoundID] OR 8087[CompoundID] OR 8117[CompoundID] OR 8133[CompoundID] OR 115224[CompoundID] OR 8175[CompoundID] OR 8194[CompoundID] OR 445639[Compou
ndID] OR 4944[CompoundID] OR 8294[CompoundID] OR 93541[CompoundID] OR 8360[CompoundID] OR 8363[CompoundID] OR 656612[CompoundID] OR 125098[CompoundID] OR 3352[CompoundID] OR 3303913[CompoundID] OR 648
05[CompoundID] OR 31200[CompoundID] OR 1712058[CompoundID] OR 31236[CompoundID] OR 31239[CompoundID] OR 31265[CompoundID] OR 31266[CompoundID] OR 31276[CompoundID] OR 6950273[CompoundID] OR 518659[Com
poundID] OR 14896[CompoundID] OR 14798[CompoundID] OR 14829[CompoundID] OR 14830[CompoundID] OR 8635[CompoundID] OR 23266[CompoundID] OR 4284[CompoundID] OR 8693[CompoundID] OR 22311[CompoundID] OR 87
59[CompoundID] OR 8785[CompoundID] OR 2723810[CompoundID] OR 8857[CompoundID] OR 3893[CompoundID] OR 9936739[CompoundID] OR 516892[CompoundID] OR 5430[CompoundID] OR 9017[CompoundID] OR 15433[Compound
ID] OR 107720[CompoundID] OR 9552081[CompoundID] OR 164825[CompoundID] OR 10275455[CompoundID] OR 16666[CompoundID] OR 9839306[CompoundID] OR 5282227[CompoundID] OR 23676745[CompoundID] OR 32881[Compo
undID] OR 91581[CompoundID] OR 39800[CompoundID] OR 33344[CompoundID] OR 15962220[CompoundID] OR 33528[CompoundID] OR 5365075[CompoundID] OR 62829[CompoundID] OR 162381[CompoundID] OR 517202[CompoundI
D] OR 6433353[CompoundID] OR 2730[CompoundID] OR 5372405[CompoundID] OR 36081[CompoundID] OR 3120[CompoundID] OR 3017[CompoundID] OR 2969[CompoundID] OR 18827[CompoundID] OR 19518[CompoundID] OR 19658
[CompoundID] OR 38283[CompoundID] OR 2758[CompoundID] OR 10112[CompoundID] OR 10340[CompoundID] OR 712[CompoundID] OR 5794[CompoundID] OR 3347[CompoundID] OR 104150[CompoundID] OR 2912[CompoundID] OR
2450[CompoundID] OR 40326[CompoundID] OR 40585[CompoundID] OR 517055[CompoundID] OR 10913[CompoundID] OR 108242[CompoundID] OR 62097[CompoundID] OR 41679[CompoundID] OR 54680676[CompoundID] OR 62118[C
ompoundID] OR 753[CompoundID] OR 1030[CompoundID] OR 23673837[CompoundID] OR 54678504[CompoundID] OR 11442[CompoundID] OR 11463[CompoundID] OR 22230[CompoundID] OR 440917[CompoundID] OR 6054[CompoundI
D] OR 43234[CompoundID] OR 22629[CompoundID] OR 3039[CompoundID] OR 2735067[CompoundID] OR 6144[CompoundID] OR 702[CompoundID] OR 284[CompoundID] OR 176[CompoundID] OR 91688[CompoundID] OR 22947[Compo
undID] OR 47445[CompoundID] OR 1711973[CompoundID] OR 243[CompoundID] OR 10342051[CompoundID] OR 5281875[CompoundID] OR 3776[CompoundID] OR 6224[CompoundID] OR 104926[CompoundID] OR 8755[CompoundID] O
R 338[CompoundID] OR 123622[CompoundID] OR 23954[CompoundID] OR 6334[CompoundID] OR 2537[CompoundID] OR 24261[CompoundID] OR 23665760[CompoundID] OR 83975[CompoundID] OR 784[CompoundID] OR 24437[Compo
undID] OR 5360315[CompoundID] OR 311[CompoundID] OR 6549[CompoundID] OR 107689[CompoundID] OR 17100[CompoundID] OR 24976875[CompoundID] OR 6654[CompoundID] OR 71245[CompoundID] OR 6442842[CompoundID]
OR 62334[CompoundID] OR 54698175[CompoundID] OR 6328154[CompoundID] OR 24762[CompoundID] OR 440950[CompoundID] OR 7017[CompoundID] OR 5281873[CompoundID] OR 323[CompoundID] OR 5281167[CompoundID] OR 7
175[CompoundID] OR 7292[CompoundID] OR 6335613[CompoundID] OR 7456[CompoundID] OR 7462[CompoundID]

> <resultIndex>
73

> <resultRange>
1-176

> <textQuery>
7628,244,25059,7618,7641,5053,637511,7714,7762,25429,8842,7794,637566,7843,174,7870,86102,7888,7896,1140,8042,8058,8078,8087,8117,8133,115224,8175,8194,445639,4944,8294,93541,8360,8363,656612,125098,3
352,3303913,64805,31200,1712058,31236,31239,31265,31266,31276,6950273,518659,14896,14798,14829,14830,8635,23266,4284,8693,22311,8759,8785,2723810,8857,3893,9936739,516892,5430,9017,15433,107720,955208
1,164825,10275455,16666,9839306,5282227,23676745,32881,91581,39800,33344,15962220,33528,5365075,62829,162381,517202,6433353,2730,5372405,36081,3120,3017,2969,18827,19518,19658,38283,2758,10112,10340,7
12,5794,3347,104150,2912,2450,40326,40585,517055,10913,108242,62097,41679,54680676,62118,753,1030,23673837,54678504,11442,11463,22230,440917,6054,43234,22629,3039,2735067,6144,702,284,176,91688,22947,
47445,1711973,243,10342051,5281875,3776,6224,104926,8755,338,123622,23954,6334,2537,24261,23665760,83975,784,24437,5360315,311,6549,107689,17100,24976875,6654,71245,6442842,62334,54698175,6328154,2476
2,440950,7017,5281873,323,5281167,7175,7292,6335613,7456,7462

$$$$
31,266
  SciTegic10191915303D

 27 26  0  0  0  0            999 V2000
   -3.5500   -3.0870   -1.8690 C   0  0
   -3.0610   -1.7280   -1.3680 C   0  0
   -1.6740   -1.7990   -0.7280 C   0  0
   -1.1850   -0.4400   -0.2260 C   0  0
    0.2050   -0.5110    0.4080 C   0  0
    0.7020    0.8390    0.8530 C   0  0
   -0.0710    1.7150    1.1620 O   0  0
    2.0250    0.9750    0.8740 O   0  0
    2.4280    2.2680    1.3020 C   0  0
    3.9310    2.3500    1.3020 C   0  0
    4.5060    3.5640    1.3020 C   0  0
   -4.5300   -2.9950   -2.3370 H   0  0
   -2.8490   -3.5070   -2.5900 H   0  0
   -3.6410   -3.7920   -1.0430 H   0  0
   -3.7820   -1.2890   -0.6790 H   0  0
   -3.0760   -0.9920   -2.1730 H   0  0
   -0.9530   -2.2380   -1.4180 H   0  0
   -1.6590   -2.5350    0.0760 H   0  0
   -1.9040   -0.0050    0.4690 H   0  0
   -1.2060    0.2970   -1.0280 H   0  0
    0.8650   -0.9140   -0.3600 H   0  0
    0.2100   -1.2030    1.2490 H   0  0
    2.0480    2.4270    2.3110 H   0  0
    2.0170    3.0010    0.6070 H   0  0
    4.6150    1.5140    1.3020 H   0  0
    4.0050    4.5210    1.3020 H   0  0
    5.5860    3.5640    1.3020 H   0  0
  1  2  1  0
  2  3  1  0
  3  4  1  0
  4  5  1  0
  5  6  1  0
  6  7  2  0
  6  8  1  0
  8  9  1  0
  9 10  1  0
 10 11  2  0
  1 12  1  0
  1 13  1  0
  1 14  1  0
  2 15  1  0
  2 16  1  0
  3 17  1  0
  3 18  1  0
  4 19  1  0
  4 20  1  0
  5 21  1  0
  5 22  1  0
  9 23  1  0
  9 24  1  0
 10 25  1  0
 11 26  1  0
 11 27  1  0
M  END
> <Name>
31,266

> <OBJECTID>
9223372350390730763

> <ActiveAidCount>
1

> <AtomChiralCount>
0

> <AtomChiralDefCount>
0

> <AtomChiralUndefCount>
0

> <BondChiralCount>
0

> <BondChiralDefCount>
0

> <BondChiralUndefCount>
0

> <CID>
31266

> <CanonicalSmiles>
CCCCCC(=O)OCC=C

> <Complexity>
119

> <CovalentUnitCount>
1

> <CreateDate>
2005/03/26 00:00

> <HeavyAtomCount>
11

> <HydrogenBondAcceptorCount>
2

> <HydrogenBondDonorCount>
0

> <IUPACName>
prop-2-enyl hexanoate

> <InChI>
InChI=1S/C9H16O2/c1-3-5-6-7-9(10)11-8-4-2/h4H,2-3,5-8H2,1H3

> <InChIKey>
RCSBILYQLVXLJG-UHFFFAOYSA-N

> <IsomericSmiles>
CCCCCC(=O)OCC=C

> <IsotopeAtomCount>
0

> <MeSHHeading>
allyl caproate

> <MeSHTerm>
allyl caproate

> <MolecularFormula>
C9H16O2

> <MolecularWeight>
156.22

> <RotatableBondCount>
7

> <Smiles>
CCCCCC(OCC=C)=O

> <SourceCategory>
Chemical Vendors
Legacy Depositors
Research and Development
Curation Efforts
Governmental Organizations
NIH Initiatives
Subscription Services
Journal Publishers

> <Synonym>
Allyl hexanoate
Allyl caproate
123-68-2
2-Propenyl n-hexanoate
Hexanoic acid, 2-propenyl ester
2-PROPENYL HEXANOATE
Hexanoic acid, allyl ester
Allyl n-caproate
Allylester kyseliny kapronove
Allyl hexanoate (natural)
AllOCOPen
Allyl n-hexanoate
UNII-3VH84A363D
FEMA No. 2032
CCRIS 6549
prop-2-enyl hexanoate
EINECS 204-642-4
Hexanoic acid, 2-propen-1-yl ester
NSC 20962
Allylester kyseliny kapronove [Czech]
prop-2-en-1-yl hexanoate
BRN 1761920
AI3-02950
RCSBILYQLVXLJG-UHFFFAOYSA-N
3VH84A363D
allylhexanoate
Nat.Allyl Caproate
Hexanoic acid allyl
ACMC-1BVGR
Hexanoic Acid Allyl Ester
EC 204-642-4
AC1L1L9V
SCHEMBL21086
4-02-00-00924 (Beilstein Handbook Reference)
KSC176G4P
WLN: 5VO2U1
CHEMBL2229585
DTXSID1047653
hexanoic acid prop-2-enyl ester
CTK0H6347
FEMA 2032
KS-00000WGR
NSC20962
ZINC1577275
Allyl hexanoate, analytical standard
ANW-18147
LMFA07010747
MFCD00038339
NSC-20962
AKOS015907976
ALLYL CAPROATE (HEXANOATE) FCC
Allyl hexanoate, >=98%, FCC, FG
LS-2369
RTR-003709
TRA0043257
AJ-27391
AN-22926
CJ-05455
CJ-25048
I928
DB-062176
TR-003709
FT-0622003
ST24030077
Allyl hexanoate, natural, >=98%, FCC, FG
A805135
I14-2570
InChI=1/C9H16O2/c1-3-5-6-7-9(10)11-8-4-2/h4H,2-3,5-8H2,1H

> <TPSA>
26.3

> <TotalAidCount>
26

> <TotalFormalCharge>
0

> <XLogP>
2.7

> <database>
PubChem Compound

> <matchingCount>
176

> <primaryID>
31266

> <queryTranslation>
7628[CompoundID] OR 244[CompoundID] OR 25059[CompoundID] OR 7618[CompoundID] OR 7641[CompoundID] OR 5053[CompoundID] OR 637511[CompoundID] OR 7714[CompoundID] OR 7762[CompoundID] OR 25429[CompoundID]
OR 8842[CompoundID] OR 7794[CompoundID] OR 637566[CompoundID] OR 7843[CompoundID] OR 174[CompoundID] OR 7870[CompoundID] OR 86102[CompoundID] OR 7888[CompoundID] OR 7896[CompoundID] OR 1140[CompoundID
] OR 8042[CompoundID] OR 8058[CompoundID] OR 8078[CompoundID] OR 8087[CompoundID] OR 8117[CompoundID] OR 8133[CompoundID] OR 115224[CompoundID] OR 8175[CompoundID] OR 8194[CompoundID] OR 445639[Compou
ndID] OR 4944[CompoundID] OR 8294[CompoundID] OR 93541[CompoundID] OR 8360[CompoundID] OR 8363[CompoundID] OR 656612[CompoundID] OR 125098[CompoundID] OR 3352[CompoundID] OR 3303913[CompoundID] OR 648
05[CompoundID] OR 31200[CompoundID] OR 1712058[CompoundID] OR 31236[CompoundID] OR 31239[CompoundID] OR 31265[CompoundID] OR 31266[CompoundID] OR 31276[CompoundID] OR 6950273[CompoundID] OR 518659[Com
poundID] OR 14896[CompoundID] OR 14798[CompoundID] OR 14829[CompoundID] OR 14830[CompoundID] OR 8635[CompoundID] OR 23266[CompoundID] OR 4284[CompoundID] OR 8693[CompoundID] OR 22311[CompoundID] OR 87
59[CompoundID] OR 8785[CompoundID] OR 2723810[CompoundID] OR 8857[CompoundID] OR 3893[CompoundID] OR 9936739[CompoundID] OR 516892[CompoundID] OR 5430[CompoundID] OR 9017[CompoundID] OR 15433[Compound
ID] OR 107720[CompoundID] OR 9552081[CompoundID] OR 164825[CompoundID] OR 10275455[CompoundID] OR 16666[CompoundID] OR 9839306[CompoundID] OR 5282227[CompoundID] OR 23676745[CompoundID] OR 32881[Compo
undID] OR 91581[CompoundID] OR 39800[CompoundID] OR 33344[CompoundID] OR 15962220[CompoundID] OR 33528[CompoundID] OR 5365075[CompoundID] OR 62829[CompoundID] OR 162381[CompoundID] OR 517202[CompoundI
D] OR 6433353[CompoundID] OR 2730[CompoundID] OR 5372405[CompoundID] OR 36081[CompoundID] OR 3120[CompoundID] OR 3017[CompoundID] OR 2969[CompoundID] OR 18827[CompoundID] OR 19518[CompoundID] OR 19658
[CompoundID] OR 38283[CompoundID] OR 2758[CompoundID] OR 10112[CompoundID] OR 10340[CompoundID] OR 712[CompoundID] OR 5794[CompoundID] OR 3347[CompoundID] OR 104150[CompoundID] OR 2912[CompoundID] OR
2450[CompoundID] OR 40326[CompoundID] OR 40585[CompoundID] OR 517055[CompoundID] OR 10913[CompoundID] OR 108242[CompoundID] OR 62097[CompoundID] OR 41679[CompoundID] OR 54680676[CompoundID] OR 62118[C
ompoundID] OR 753[CompoundID] OR 1030[CompoundID] OR 23673837[CompoundID] OR 54678504[CompoundID] OR 11442[CompoundID] OR 11463[CompoundID] OR 22230[CompoundID] OR 440917[CompoundID] OR 6054[CompoundI
D] OR 43234[CompoundID] OR 22629[CompoundID] OR 3039[CompoundID] OR 2735067[CompoundID] OR 6144[CompoundID] OR 702[CompoundID] OR 284[CompoundID] OR 176[CompoundID] OR 91688[CompoundID] OR 22947[Compo
undID] OR 47445[CompoundID] OR 1711973[CompoundID] OR 243[CompoundID] OR 10342051[CompoundID] OR 5281875[CompoundID] OR 3776[CompoundID] OR 6224[CompoundID] OR 104926[CompoundID] OR 8755[CompoundID] O
R 338[CompoundID] OR 123622[CompoundID] OR 23954[CompoundID] OR 6334[CompoundID] OR 2537[CompoundID] OR 24261[CompoundID] OR 23665760[CompoundID] OR 83975[CompoundID] OR 784[CompoundID] OR 24437[Compo
undID] OR 5360315[CompoundID] OR 311[CompoundID] OR 6549[CompoundID] OR 107689[CompoundID] OR 17100[CompoundID] OR 24976875[CompoundID] OR 6654[CompoundID] OR 71245[CompoundID] OR 6442842[CompoundID]
OR 62334[CompoundID] OR 54698175[CompoundID] OR 6328154[CompoundID] OR 24762[CompoundID] OR 440950[CompoundID] OR 7017[CompoundID] OR 5281873[CompoundID] OR 323[CompoundID] OR 5281167[CompoundID] OR 7
175[CompoundID] OR 7292[CompoundID] OR 6335613[CompoundID] OR 7456[CompoundID] OR 7462[CompoundID]

> <resultIndex>
74

> <resultRange>
1-176

> <textQuery>
7628,244,25059,7618,7641,5053,637511,7714,7762,25429,8842,7794,637566,7843,174,7870,86102,7888,7896,1140,8042,8058,8078,8087,8117,8133,115224,8175,8194,445639,4944,8294,93541,8360,8363,656612,125098,3
352,3303913,64805,31200,1712058,31236,31239,31265,31266,31276,6950273,518659,14896,14798,14829,14830,8635,23266,4284,8693,22311,8759,8785,2723810,8857,3893,9936739,516892,5430,9017,15433,107720,955208
1,164825,10275455,16666,9839306,5282227,23676745,32881,91581,39800,33344,15962220,33528,5365075,62829,162381,517202,6433353,2730,5372405,36081,3120,3017,2969,18827,19518,19658,38283,2758,10112,10340,7
12,5794,3347,104150,2912,2450,40326,40585,517055,10913,108242,62097,41679,54680676,62118,753,1030,23673837,54678504,11442,11463,22230,440917,6054,43234,22629,3039,2735067,6144,702,284,176,91688,22947,
47445,1711973,243,10342051,5281875,3776,6224,104926,8755,338,123622,23954,6334,2537,24261,23665760,83975,784,24437,5360315,311,6549,107689,17100,24976875,6654,71245,6442842,62334,54698175,6328154,2476
2,440950,7017,5281873,323,5281167,7175,7292,6335613,7456,7462

$$$$
31,265
  SciTegic10191915303D

 26 25  0  0  0  0            999 V2000
   -0.4590    0.8170   -4.6570 C   0  0
   -0.8930    0.1470   -3.3530 C   0  0
    0.0870    0.4000   -2.2060 C   0  0
   -0.3490   -0.2660   -0.9010 C   0  0
    0.6330   -0.0180    0.2450 C   0  0
    0.1780   -0.6420    1.5370 C   0  0
   -0.5340   -1.6180    1.5390 O   0  0
    0.6160   -0.0410    2.6400 O   0  0
    0.1520   -0.6770    3.8220 C   0  0
    0.6920    0.0640    5.0450 C   0  0
   -1.1690    0.6000   -5.4560 H   0  0
   -0.3860    1.8970   -4.5300 H   0  0
    0.5180    0.4510   -4.9720 H   0  0
   -1.0450   -0.9220   -3.5010 H   0  0
   -1.9000    0.4590   -3.0760 H   0  0
    0.2410    1.4690   -2.0600 H   0  0
    1.0930    0.0850   -2.4820 H   0  0
   -0.5070   -1.3350   -1.0470 H   0  0
   -1.3540    0.0510   -0.6220 H   0  0
    0.6950    1.0650    0.3580 H   0  0
    1.6270   -0.3840   -0.0130 H   0  0
    0.5000   -1.7110    3.8120 H   0  0
   -0.9380   -0.6620    3.8120 H   0  0
    0.3590   -0.3930    5.9770 H   0  0
    0.3590    1.1010    5.0450 H   0  0
    1.7820    0.0640    5.0450 H   0  0
  1  2  1  0
  2  3  1  0
  3  4  1  0
  4  5  1  0
  5  6  1  0
  6  7  2  0
  6  8  1  0
  8  9  1  0
  9 10  1  0
  1 11  1  0
  1 12  1  0
  1 13  1  0
  2 14  1  0
  2 15  1  0
  3 16  1  0
  3 17  1  0
  4 18  1  0
  4 19  1  0
  5 20  1  0
  5 21  1  0
  9 22  1  0
  9 23  1  0
 10 24  1  0
 10 25  1  0
 10 26  1  0
M  END
> <Name>
31,265

> <OBJECTID>
9223372354685698059

> <ActiveAidCount>
1

> <AtomChiralCount>
0

> <AtomChiralDefCount>
0

> <AtomChiralUndefCount>
0

> <BondChiralCount>
0

> <BondChiralDefCount>
0

> <BondChiralUndefCount>
0

> <CID>
31265

> <CanonicalSmiles>
CCCCCC(=O)OCC

> <Complexity>
89.3

> <CovalentUnitCount>
1

> <CreateDate>
2005/03/26 00:00

> <HeavyAtomCount>
10

> <HydrogenBondAcceptorCount>
2

> <HydrogenBondDonorCount>
0

> <IUPACName>
ethyl hexanoate

> <InChI>
InChI=1S/C8H16O2/c1-3-5-6-7-8(9)10-4-2/h3-7H2,1-2H3

> <InChIKey>
SHZIWNPUGXLXDT-UHFFFAOYSA-N

> <IsomericSmiles>
CCCCCC(=O)OCC

> <IsotopeAtomCount>
0

> <MeSHHeading>
ethyl hexanoate

> <MeSHTerm>
ethyl caproate
hexanoic acid ethyl ester
ethyl hexanoate

> <MolecularFormula>
C8H16O2

> <MolecularWeight>
144.21

> <RotatableBondCount>
6

> <Smiles>
CCCCCC(OCC)=O

> <SourceCategory>
Chemical Vendors
Legacy Depositors
Research and Development
Curation Efforts
Governmental Organizations
NIH Initiatives
Subscription Services
Journal Publishers

> <Synonym>
Ethyl caproate
ETHYL HEXANOATE
123-66-0
Hexanoic acid, ethyl ester
Ethyl hexoate
Hexanoic Acid Ethyl Ester
Caproic acid ethyl ester
Capronic ether absolute
Ethyl n-hexanoate
Ethyl butyl acetate
Ethyl hexanoate (caproate)
Acetic acid, butyl-, ethyl ester
UNII-FLO6YR1SHT
n-Caproic acid ethyl ester
NSC 8882
Ethyl ester of hexanoic acid
FEMA No. 2439
CCRIS 6555
Caproic acid ethylester
FLO6YR1SHT
EINECS 204-640-3
MFCD00009511
Ethyl hexanoate (caproate) (natural)
BRN 1701293
AI3-15347
Hexanoic acid, ethyl ester, mixt. with soybean oil epoxide
SHZIWNPUGXLXDT-UHFFFAOYSA-N
Ethyl caproate, 99+%
ethylcaproate
Ethyl n-hexanoat
2-Ethyl Hexanoate
Hexanoic acid ethyl
Nat.Ethyl Hexanoate
ETHYLHEXANOATE
PubChem15737
ACMC-209apg
Ethyl Hexanoate, Natural
Hexanoic acid-ethyl ester
Hexanoicacid, ethyl ester
DSSTox_CID_1980
Ethyl butyl acetate (dot)
Ethyl hexanoate, >=99%
AC1L1L9S
DSSTox_RID_76440
DSSTox_GSID_21980
SCHEMBL37297
NATURAL ETHYL CAPROATE
KSC492C1J
WLN: 5VO2
DTXSID3021980
CHEBI:86055
CTK3J2114
FEMA 2439
NSC8882
KS-00000X3S
NSC-8882
ZINC1648304
Tox21_301217
7966AF
ANW-18146
LMFA07010434
SBB060316
AKOS008947981
Ethyl hexanoate, >=98%, FCC, FG
EBD3039504
LS-2728
MCULE-5403677128
RTR-003708
TRA0079762
NCGC00255157-01
AN-22925
CAS-123-66-0
CJ-05942
CJ-26663
SC-26717
TR-003708
FT-0654031
ST50823925
Ethyl hexanoate, analytical reference material
Ethyl hexanoate, natural, >=98%, FCC, FG
Hexanoic acid, mixt. with soybean oil epoxide
WE(2:0/6:0)
Ethyl hexanoate, SAJ special grade, >=99.0%
I14-2582
J-004970

> <TPSA>
26.3

> <TotalAidCount>
212

> <TotalFormalCharge>
0

> <XLogP>
2.4

> <database>
PubChem Compound

> <matchingCount>
176

> <primaryID>
31265

> <queryTranslation>
7628[CompoundID] OR 244[CompoundID] OR 25059[CompoundID] OR 7618[CompoundID] OR 7641[CompoundID] OR 5053[CompoundID] OR 637511[CompoundID] OR 7714[CompoundID] OR 7762[CompoundID] OR 25429[CompoundID]
OR 8842[CompoundID] OR 7794[CompoundID] OR 637566[CompoundID] OR 7843[CompoundID] OR 174[CompoundID] OR 7870[CompoundID] OR 86102[CompoundID] OR 7888[CompoundID] OR 7896[CompoundID] OR 1140[CompoundID
] OR 8042[CompoundID] OR 8058[CompoundID] OR 8078[CompoundID] OR 8087[CompoundID] OR 8117[CompoundID] OR 8133[CompoundID] OR 115224[CompoundID] OR 8175[CompoundID] OR 8194[CompoundID] OR 445639[Compou
ndID] OR 4944[CompoundID] OR 8294[CompoundID] OR 93541[CompoundID] OR 8360[CompoundID] OR 8363[CompoundID] OR 656612[CompoundID] OR 125098[CompoundID] OR 3352[CompoundID] OR 3303913[CompoundID] OR 648
05[CompoundID] OR 31200[CompoundID] OR 1712058[CompoundID] OR 31236[CompoundID] OR 31239[CompoundID] OR 31265[CompoundID] OR 31266[CompoundID] OR 31276[CompoundID] OR 6950273[CompoundID] OR 518659[Com
poundID] OR 14896[CompoundID] OR 14798[CompoundID] OR 14829[CompoundID] OR 14830[CompoundID] OR 8635[CompoundID] OR 23266[CompoundID] OR 4284[CompoundID] OR 8693[CompoundID] OR 22311[CompoundID] OR 87
59[CompoundID] OR 8785[CompoundID] OR 2723810[CompoundID] OR 8857[CompoundID] OR 3893[CompoundID] OR 9936739[CompoundID] OR 516892[CompoundID] OR 5430[CompoundID] OR 9017[CompoundID] OR 15433[Compound
ID] OR 107720[CompoundID] OR 9552081[CompoundID] OR 164825[CompoundID] OR 10275455[CompoundID] OR 16666[CompoundID] OR 9839306[CompoundID] OR 5282227[CompoundID] OR 23676745[CompoundID] OR 32881[Compo
undID] OR 91581[CompoundID] OR 39800[CompoundID] OR 33344[CompoundID] OR 15962220[CompoundID] OR 33528[CompoundID] OR 5365075[CompoundID] OR 62829[CompoundID] OR 162381[CompoundID] OR 517202[CompoundI
D] OR 6433353[CompoundID] OR 2730[CompoundID] OR 5372405[CompoundID] OR 36081[CompoundID] OR 3120[CompoundID] OR 3017[CompoundID] OR 2969[CompoundID] OR 18827[CompoundID] OR 19518[CompoundID] OR 19658
[CompoundID] OR 38283[CompoundID] OR 2758[CompoundID] OR 10112[CompoundID] OR 10340[CompoundID] OR 712[CompoundID] OR 5794[CompoundID] OR 3347[CompoundID] OR 104150[CompoundID] OR 2912[CompoundID] OR
2450[CompoundID] OR 40326[CompoundID] OR 40585[CompoundID] OR 517055[CompoundID] OR 10913[CompoundID] OR 108242[CompoundID] OR 62097[CompoundID] OR 41679[CompoundID] OR 54680676[CompoundID] OR 62118[C
ompoundID] OR 753[CompoundID] OR 1030[CompoundID] OR 23673837[CompoundID] OR 54678504[CompoundID] OR 11442[CompoundID] OR 11463[CompoundID] OR 22230[CompoundID] OR 440917[CompoundID] OR 6054[CompoundI
D] OR 43234[CompoundID] OR 22629[CompoundID] OR 3039[CompoundID] OR 2735067[CompoundID] OR 6144[CompoundID] OR 702[CompoundID] OR 284[CompoundID] OR 176[CompoundID] OR 91688[CompoundID] OR 22947[Compo
undID] OR 47445[CompoundID] OR 1711973[CompoundID] OR 243[CompoundID] OR 10342051[CompoundID] OR 5281875[CompoundID] OR 3776[CompoundID] OR 6224[CompoundID] OR 104926[CompoundID] OR 8755[CompoundID] O
R 338[CompoundID] OR 123622[CompoundID] OR 23954[CompoundID] OR 6334[CompoundID] OR 2537[CompoundID] OR 24261[CompoundID] OR 23665760[CompoundID] OR 83975[CompoundID] OR 784[CompoundID] OR 24437[Compo
undID] OR 5360315[CompoundID] OR 311[CompoundID] OR 6549[CompoundID] OR 107689[CompoundID] OR 17100[CompoundID] OR 24976875[CompoundID] OR 6654[CompoundID] OR 71245[CompoundID] OR 6442842[CompoundID]
OR 62334[CompoundID] OR 54698175[CompoundID] OR 6328154[CompoundID] OR 24762[CompoundID] OR 440950[CompoundID] OR 7017[CompoundID] OR 5281873[CompoundID] OR 323[CompoundID] OR 5281167[CompoundID] OR 7
175[CompoundID] OR 7292[CompoundID] OR 6335613[CompoundID] OR 7456[CompoundID] OR 7462[CompoundID]

> <resultIndex>
75

> <resultRange>
1-176

> <textQuery>
7628,244,25059,7618,7641,5053,637511,7714,7762,25429,8842,7794,637566,7843,174,7870,86102,7888,7896,1140,8042,8058,8078,8087,8117,8133,115224,8175,8194,445639,4944,8294,93541,8360,8363,656612,125098,3
352,3303913,64805,31200,1712058,31236,31239,31265,31266,31276,6950273,518659,14896,14798,14829,14830,8635,23266,4284,8693,22311,8759,8785,2723810,8857,3893,9936739,516892,5430,9017,15433,107720,955208
1,164825,10275455,16666,9839306,5282227,23676745,32881,91581,39800,33344,15962220,33528,5365075,62829,162381,517202,6433353,2730,5372405,36081,3120,3017,2969,18827,19518,19658,38283,2758,10112,10340,7
12,5794,3347,104150,2912,2450,40326,40585,517055,10913,108242,62097,41679,54680676,62118,753,1030,23673837,54678504,11442,11463,22230,440917,6054,43234,22629,3039,2735067,6144,702,284,176,91688,22947,
47445,1711973,243,10342051,5281875,3776,6224,104926,8755,338,123622,23954,6334,2537,24261,23665760,83975,784,24437,5360315,311,6549,107689,17100,24976875,6654,71245,6442842,62334,54698175,6328154,2476
2,440950,7017,5281873,323,5281167,7175,7292,6335613,7456,7462

$$$$
31,239
  SciTegic10191915303D

 60 60  0  0  0  0            999 V2000
    7.0220    5.1480    0.0000 N   0  3
    7.7700    3.9590    0.0000 C   0  0
    7.6820    6.3930    0.0000 C   0  0
    9.0860    6.4430    0.0000 C   0  0
    9.1740    4.0100    0.0000 C   0  0
    9.8320    5.2520    0.0000 C   0  0
    5.5510    5.0960    0.0000 C   0  0
    1.0140    0.5550    0.0000 C   0  0
   -4.5550   -2.6410    0.0000 C   0  0
   -0.5120    0.4530    0.0000 C   0  0
   -3.0290   -2.5410    0.0000 C   0  0
   -1.0080   -0.9920    0.0000 C   0  0
   -2.5330   -1.0940    0.0000 C   0  0
    1.5100    2.0000    0.0000 C   0  0
    3.0350    2.1020    0.0000 C   0  0
   -5.0510   -4.0880    0.0000 C   0  0
   -6.5760   -4.1900    0.0000 C   0  0
    3.5310    3.5490    0.0000 C   0  0
    5.0570    3.6480    0.0000 C   0  0
   -7.0700   -5.6350    0.0000 C   0  0
   -8.5980   -5.7360    0.0000 C   0  0
   -9.0920   -7.1840    0.0000 C   0  0
    7.2720    3.0000    0.0000 H   0  0
    7.1130    7.3110    0.0000 H   0  0
    9.5920    7.3970    0.0000 H   0  0
    9.7480    3.0960    0.0000 H   0  0
   10.9120    5.2910    0.0000 H   0  0
    5.1680    5.6350    0.8670 H   0  0
    5.1680    5.6350   -0.8670 H   0  0
    1.4360    0.0020   -0.8400 H   0  0
    1.4360    0.0020    0.8400 H   0  0
   -4.9770   -2.0900    0.8400 H   0  0
   -4.9770   -2.0900   -0.8400 H   0  0
   -0.9350    1.0060    0.8400 H   0  0
   -0.9350    1.0060   -0.8400 H   0  0
   -2.6050   -3.0920   -0.8400 H   0  0
   -2.6050   -3.0920    0.8400 H   0  0
   -0.5840   -1.5450   -0.8400 H   0  0
   -0.5840   -1.5450    0.8400 H   0  0
   -2.9550   -0.5430    0.8400 H   0  0
   -2.9550   -0.5430   -0.8400 H   0  0
    1.0860    2.5530    0.8400 H   0  0
    1.0860    2.5530   -0.8400 H   0  0
    3.4570    1.5490   -0.8400 H   0  0
    3.4570    1.5490    0.8400 H   0  0
   -4.6270   -4.6410   -0.8400 H   0  0
   -4.6270   -4.6410    0.8400 H   0  0
   -6.9980   -3.6370    0.8400 H   0  0
   -6.9980   -3.6370   -0.8400 H   0  0
    3.1080    4.1000    0.8400 H   0  0
    3.1080    4.1000   -0.8400 H   0  0
    5.4790    3.0980   -0.8400 H   0  0
    5.4790    3.0980    0.8400 H   0  0
   -6.6480   -6.1880   -0.8400 H   0  0
   -6.6480   -6.1880    0.8400 H   0  0
   -9.0200   -5.1840    0.8400 H   0  0
   -9.0200   -5.1860   -0.8400 H   0  0
  -10.1820   -7.2170    0.0100 H   0  0
   -8.7290   -7.7150   -0.8790 H   0  0
   -8.7340   -7.7130    0.8830 H   0  0
  1  2  2  0
  1  3  1  0
  1  7  1  0
  2  5  1  0
  3  4  2  0
  4  6  1  0
  5  6  2  0
  7 19  1  0
  8 10  1  0
  8 14  1  0
  9 11  1  0
  9 16  1  0
 10 12  1  0
 11 13  1  0
 12 13  1  0
 14 15  1  0
 15 18  1  0
 16 17  1  0
 17 20  1  0
 18 19  1  0
 20 21  1  0
 21 22  1  0
  2 23  1  0
  3 24  1  0
  4 25  1  0
  5 26  1  0
  6 27  1  0
  7 28  1  0
  7 29  1  0
  8 30  1  0
  8 31  1  0
  9 32  1  0
  9 33  1  0
 10 34  1  0
 10 35  1  0
 11 36  1  0
 11 37  1  0
 12 38  1  0
 12 39  1  0
 13 40  1  0
 13 41  1  0
 14 42  1  0
 14 43  1  0
 15 44  1  0
 15 45  1  0
 16 46  1  0
 16 47  1  0
 17 48  1  0
 17 49  1  0
 18 50  1  0
 18 51  1  0
 19 52  1  0
 19 53  1  0
 20 54  1  0
 20 55  1  0
 21 56  1  0
 21 57  1  0
 22 58  1  0
 22 59  1  0
 22 60  1  0
M  CHG  1   1   1
M  END
> <Name>
31,239

> <OBJECTID>
9223372358980665355

> <ActiveAidCount>
108

> <AtomChiralCount>
0

> <AtomChiralDefCount>
0

> <AtomChiralUndefCount>
0

> <BondChiralCount>
0

> <BondChiralDefCount>
0

> <BondChiralUndefCount>
0

> <CID>
31239

> <CanonicalSmiles>
CCCCCCCCCCCCCCCC[N+]1=CC=CC=C1.[Cl-]

> <Complexity>
208

> <CovalentUnitCount>
2

> <CreateDate>
2004/09/16 00:00

> <HeavyAtomCount>
23

> <HydrogenBondAcceptorCount>
1

> <HydrogenBondDonorCount>
0

> <IUPACName>
1-hexadecylpyridin-1-ium;chloride

> <InChI>
InChI=1S/C21H38N.ClH/c1-2-3-4-5-6-7-8-9-10-11-12-13-14-16-19-22-20-17-15-18-21-22;/h15,17-18,20-21H,2-14,16,19H2,1H3;1H/q+1;/p-1

> <InChIKey>
YMKDRGPMQRFJGP-UHFFFAOYSA-M

> <IsomericSmiles>
CCCCCCCCCCCCCCCC[N+]1=CC=CC=C1.[Cl-]

> <IsotopeAtomCount>
0

> <MeSHHeading>
tserigel

> <MeSHTerm>
tserigel
cerigel

> <MolecularFormula>
C21H38ClN

> <MolecularWeight>
340

> <RotatableBondCount>
15

> <Smiles>
[n+]1(CCCCCCCCCCCCCCCC)ccccc1.[Cl-]

> <SourceCategory>
Legacy Depositors
Chemical Vendors
Research and Development
Curation Efforts
Subscription Services
Journal Publishers
Governmental Organizations
NIH Initiatives

> <Synonym>
cetylpyridinium chloride
123-03-5
hexadecylpyridinium chloride
Pristacin
1-Hexadecylpyridinium chloride
Cetamium
1-hexadecylpyridin-1-ium chloride
Dobendan
Pyrisept
Tserigel
Aktivex
Biosept
Cepacol
Ceprim
Ceepryn chloride
Cepacol chloride
Quaternario CPC
Acetoquat CPC
Intexsan CPC
Swabettes Hoechst
Ammonyx CPC
N-Hexadecylpyridinium chloride
Cetyl pyridinium chloride
N-Cetylpyridinium chloride
1-Cetylpyridinium chloride
Medilave
Merocet
Ceeprin chloride
hexadecyl pyridinium chloride
Pyridinium, 1-hexadecyl-, chloride
1-Palmitylpyridinium chloride
Cetylpyridini chloridum
Caswell No. 166A
Cloruro de cetilpiridinio
Chlorure de cetylpyridinium
UNII-6BR7T22E2S
Cetylpyridinii chloridum
HSDB 38
Cetilpiridinio cloruro [DCIT]
CETYLPYRIDINIUM CHLORIDE ANHYDROUS
EINECS 204-593-9
Cetylpyridinii chloridum [INN-Latin]
NSC 14864
EPA Pesticide Chemical Code 069160
Cloruro de cetilpiridinio [INN-Spanish]
Chlorure de cetylpyridinium [INN-French]
AI3-15070
6BR7T22E2S
CETYL PYRIDINIUM CHLORINE
CHEBI:32915
Pyridinium, 1-hexadecyl-, chloride (1:1)
C21H38N
Cetilpiridinio cloruro
CPC
cerigel
Cetylpyridinium chloride [INN]
NB 002
cetylpyridinium-chloride
Cetyl-pyridinium chloride
Hexadecylpyridiniumchloride
hexadecylpyridine, chloride
AC1L1L7M
AC1Q1RR6
C21H38ClN
SCHEMBL4763
DSSTox_CID_21761
DSSTox_RID_79838
DSSTox_GSID_41761
ARONIS24387
CHEMBL34833
SPECTRUM1500169
1-Hexadecyl-Pyridinium Chloride
DTXSID6041761
CTK0H6090
HMS501B08
YMKDRGPMQRFJGP-UHFFFAOYSA-M
HMS1920M13
HMS2091A20
HMS3652F05
Pharmakon1600-01500169
1-hexadecylpyridine chloride hydrate
ACT02661
CETYLPYRIDINIUM CHLORIDE H2O
KS-00000FW6
NSC14864
Cetylpyridinium Chloride (anhydrous)
Tox21_301296
1-Cetylpyridinium chloride 1-hydrate
CCG-39719
MFCD00011731
NSC-14864
NSC756673
s4172
SBB080799
AKOS005267197
KS-5309
MCULE-9273804888
NE10697
NSC-756673
RP17926
WLN: T6KJ A16 & Q & G
NCGC00094618-01
NCGC00094618-02
NCGC00257543-01
AK307801
AN-22898
CAS-123-03-5
SC-13698
U303
DB-041704
LS-132591
TL8003812
FT-0082393
FT-0602586
SW222237-1
A16439
97702-EP2277879A1
97702-EP2295426A1
97702-EP2295427A1
97702-EP2305662A1
A832584
SR-05000001582
I02-0514
SR-05000001582-1
W-105282
Acetoquat CPCPyriseptEXADECYL-PYRIDINIUM, CHLORIDE

> <TPSA>
3.9

> <TotalAidCount>
395

> <TotalFormalCharge>
0

> <database>
PubChem Compound

> <matchingCount>
176

> <primaryID>
31239

> <queryTranslation>
7628[CompoundID] OR 244[CompoundID] OR 25059[CompoundID] OR 7618[CompoundID] OR 7641[CompoundID] OR 5053[CompoundID] OR 637511[CompoundID] OR 7714[CompoundID] OR 7762[CompoundID] OR 25429[CompoundID]
OR 8842[CompoundID] OR 7794[CompoundID] OR 637566[CompoundID] OR 7843[CompoundID] OR 174[CompoundID] OR 7870[CompoundID] OR 86102[CompoundID] OR 7888[CompoundID] OR 7896[CompoundID] OR 1140[CompoundID
] OR 8042[CompoundID] OR 8058[CompoundID] OR 8078[CompoundID] OR 8087[CompoundID] OR 8117[CompoundID] OR 8133[CompoundID] OR 115224[CompoundID] OR 8175[CompoundID] OR 8194[CompoundID] OR 445639[Compou
ndID] OR 4944[CompoundID] OR 8294[CompoundID] OR 93541[CompoundID] OR 8360[CompoundID] OR 8363[CompoundID] OR 656612[CompoundID] OR 125098[CompoundID] OR 3352[CompoundID] OR 3303913[CompoundID] OR 648
05[CompoundID] OR 31200[CompoundID] OR 1712058[CompoundID] OR 31236[CompoundID] OR 31239[CompoundID] OR 31265[CompoundID] OR 31266[CompoundID] OR 31276[CompoundID] OR 6950273[CompoundID] OR 518659[Com
poundID] OR 14896[CompoundID] OR 14798[CompoundID] OR 14829[CompoundID] OR 14830[CompoundID] OR 8635[CompoundID] OR 23266[CompoundID] OR 4284[CompoundID] OR 8693[CompoundID] OR 22311[CompoundID] OR 87
59[CompoundID] OR 8785[CompoundID] OR 2723810[CompoundID] OR 8857[CompoundID] OR 3893[CompoundID] OR 9936739[CompoundID] OR 516892[CompoundID] OR 5430[CompoundID] OR 9017[CompoundID] OR 15433[Compound
ID] OR 107720[CompoundID] OR 9552081[CompoundID] OR 164825[CompoundID] OR 10275455[CompoundID] OR 16666[CompoundID] OR 9839306[CompoundID] OR 5282227[CompoundID] OR 23676745[CompoundID] OR 32881[Compo
undID] OR 91581[CompoundID] OR 39800[CompoundID] OR 33344[CompoundID] OR 15962220[CompoundID] OR 33528[CompoundID] OR 5365075[CompoundID] OR 62829[CompoundID] OR 162381[CompoundID] OR 517202[CompoundI
D] OR 6433353[CompoundID] OR 2730[CompoundID] OR 5372405[CompoundID] OR 36081[CompoundID] OR 3120[CompoundID] OR 3017[CompoundID] OR 2969[CompoundID] OR 18827[CompoundID] OR 19518[CompoundID] OR 19658
[CompoundID] OR 38283[CompoundID] OR 2758[CompoundID] OR 10112[CompoundID] OR 10340[CompoundID] OR 712[CompoundID] OR 5794[CompoundID] OR 3347[CompoundID] OR 104150[CompoundID] OR 2912[CompoundID] OR
2450[CompoundID] OR 40326[CompoundID] OR 40585[CompoundID] OR 517055[CompoundID] OR 10913[CompoundID] OR 108242[CompoundID] OR 62097[CompoundID] OR 41679[CompoundID] OR 54680676[CompoundID] OR 62118[C
ompoundID] OR 753[CompoundID] OR 1030[CompoundID] OR 23673837[CompoundID] OR 54678504[CompoundID] OR 11442[CompoundID] OR 11463[CompoundID] OR 22230[CompoundID] OR 440917[CompoundID] OR 6054[CompoundI
D] OR 43234[CompoundID] OR 22629[CompoundID] OR 3039[CompoundID] OR 2735067[CompoundID] OR 6144[CompoundID] OR 702[CompoundID] OR 284[CompoundID] OR 176[CompoundID] OR 91688[CompoundID] OR 22947[Compo
undID] OR 47445[CompoundID] OR 1711973[CompoundID] OR 243[CompoundID] OR 10342051[CompoundID] OR 5281875[CompoundID] OR 3776[CompoundID] OR 6224[CompoundID] OR 104926[CompoundID] OR 8755[CompoundID] O
R 338[CompoundID] OR 123622[CompoundID] OR 23954[CompoundID] OR 6334[CompoundID] OR 2537[CompoundID] OR 24261[CompoundID] OR 23665760[CompoundID] OR 83975[CompoundID] OR 784[CompoundID] OR 24437[Compo
undID] OR 5360315[CompoundID] OR 311[CompoundID] OR 6549[CompoundID] OR 107689[CompoundID] OR 17100[CompoundID] OR 24976875[CompoundID] OR 6654[CompoundID] OR 71245[CompoundID] OR 6442842[CompoundID]
OR 62334[CompoundID] OR 54698175[CompoundID] OR 6328154[CompoundID] OR 24762[CompoundID] OR 440950[CompoundID] OR 7017[CompoundID] OR 5281873[CompoundID] OR 323[CompoundID] OR 5281167[CompoundID] OR 7
175[CompoundID] OR 7292[CompoundID] OR 6335613[CompoundID] OR 7456[CompoundID] OR 7462[CompoundID]

> <resultIndex>
76

> <resultRange>
1-176

> <textQuery>
7628,244,25059,7618,7641,5053,637511,7714,7762,25429,8842,7794,637566,7843,174,7870,86102,7888,7896,1140,8042,8058,8078,8087,8117,8133,115224,8175,8194,445639,4944,8294,93541,8360,8363,656612,125098,3
352,3303913,64805,31200,1712058,31236,31239,31265,31266,31276,6950273,518659,14896,14798,14829,14830,8635,23266,4284,8693,22311,8759,8785,2723810,8857,3893,9936739,516892,5430,9017,15433,107720,955208
1,164825,10275455,16666,9839306,5282227,23676745,32881,91581,39800,33344,15962220,33528,5365075,62829,162381,517202,6433353,2730,5372405,36081,3120,3017,2969,18827,19518,19658,38283,2758,10112,10340,7
12,5794,3347,104150,2912,2450,40326,40585,517055,10913,108242,62097,41679,54680676,62118,753,1030,23673837,54678504,11442,11463,22230,440917,6054,43234,22629,3039,2735067,6144,702,284,176,91688,22947,
47445,1711973,243,10342051,5281875,3776,6224,104926,8755,338,123622,23954,6334,2537,24261,23665760,83975,784,24437,5360315,311,6549,107689,17100,24976875,6654,71245,6442842,62334,54698175,6328154,2476
2,440950,7017,5281873,323,5281167,7175,7292,6335613,7456,7462

$$$$
31,236
  SciTegic10191915303D

 20 20  0  0  0  0            999 V2000
    3.2470    2.4450    0.0010 O   0  0
    1.8370    2.4750    0.0000 C   0  0
    1.3280    1.0330    0.0000 C   0  0
   -0.0920    1.0320    0.0000 O   0  0
   -0.7100   -0.1330    0.0000 C   0  0
   -2.1150   -0.1880    0.0000 C   0  0
   -2.7740   -1.4290    0.0000 C   0  0
   -2.0280   -2.6200    0.0000 C   0  0
   -0.6230   -2.5690    0.0000 C   0  0
    0.0340   -1.3270    0.0000 C   0  0
    3.5530    3.3650    0.0010 H   0  0
    1.5100    2.9990   -0.8980 H   0  0
    1.5080    3.0000    0.8960 H   0  0
    1.6680    0.5040    0.8900 H   0  0
    1.6700    0.5040   -0.8890 H   0  0
   -2.6920    0.7260    0.0000 H   0  0
   -3.8530   -1.4680    0.0000 H   0  0
   -2.5330   -3.5750    0.0000 H   0  0
   -0.0490   -3.4840    0.0000 H   0  0
    1.1140   -1.2910    0.0000 H   0  0
  1  2  1  0
  2  3  1  0
  3  4  1  0
  4  5  1  0
  5  6  2  0
  5 10  1  0
  6  7  1  0
  7  8  2  0
  8  9  1  0
  9 10  2  0
  1 11  1  0
  2 12  1  0
  2 13  1  0
  3 14  1  0
  3 15  1  0
  6 16  1  0
  7 17  1  0
  8 18  1  0
  9 19  1  0
 10 20  1  0
M  END
> <Name>
31,236

> <OBJECTID>
9223372363275632651

> <ActiveAidCount>
4

> <AtomChiralCount>
0

> <AtomChiralDefCount>
0

> <AtomChiralUndefCount>
0

> <BondChiralCount>
0

> <BondChiralDefCount>
0

> <BondChiralUndefCount>
0

> <CID>
31236

> <CanonicalSmiles>
C1=CC=C(C=C1)OCCO

> <Complexity>
77.3

> <CovalentUnitCount>
1

> <CreateDate>
2005/03/26 00:00

> <HeavyAtomCount>
10

> <HydrogenBondAcceptorCount>
2

> <HydrogenBondDonorCount>
1

> <IUPACName>
2-phenoxyethanol

> <InChI>
InChI=1S/C8H10O2/c9-6-7-10-8-4-2-1-3-5-8/h1-5,9H,6-7H2

> <InChIKey>
QCDWFXQBSFUVSP-UHFFFAOYSA-N

> <IsomericSmiles>
C1=CC=C(C=C1)OCCO

> <IsotopeAtomCount>
0

> <MeSHHeading>
phenoxyethanol

> <MeSHTerm>
ethylene glycol monophenyl ether
Erisept
Emuclens
phenoxethol
phenoxyethanol
2-phenoxyethanol

> <MolecularFormula>
C8H10O2

> <MolecularWeight>
138.16

> <PharmAction>
Chemical Actions and Uses
Therapeutic Uses
Pharmacologic Actions
Anti-Infective Agents
Central Nervous System Agents
Anesthetics
Central Nervous System Depressants
Physiological Effects of Drugs
Anti-Infective Agents, Local

> <RotatableBondCount>
3

> <Smiles>
OCCOc1ccccc1

> <SourceCategory>
Chemical Vendors
Legacy Depositors
Research and Development
Curation Efforts
Governmental Organizations
NIH Initiatives
Subscription Services
Journal Publishers

> <Synonym>
2-PHENOXYETHANOL
122-99-6
Phenoxyethanol
Ethylene glycol monophenyl ether
Phenyl cellosolve
Ethanol, 2-phenoxy-
Phenoxethol
Phenoxytol
Phenoxetol
Ethylene glycol phenyl ether
Phenoxyethyl alcohol
Rose ether
2-Phenoxyethan-1-Ol
1-Hydroxy-2-phenoxyethane
Arosol
Phenylmonoglycol ether
Dowanol EP
Glycol monophenyl ether
Phenylglycol
Fenyl-cellosolve
2-Fenoxyethanol
2-Hydroxyethyl phenyl ether
2-Phenoxyethyl alcohol
Dowanol EPH
Emery 6705
Emeressence 1160
Fenylcelosolv
Marlophen P
Marlophen P 7
2-Phenoxy-ethanol
Spermicide 741
Tritonyl 45
Ethylan HB 4
EGMPE
beta-Hydroxyethyl phenyl ether
Fenylcelosolv [Czech]
MFCD00002857
Phenooxy alcohol
2-Fenoxyethanol [Czech]
Fenyl-cellosolve [Czech]
Plastiazan-41 [Russian]
UNII-HIE492ZZ3T
NSC 1864
Polyoxyethylene phenol ether
Polyoxyethylene phenyl ether
2-phenoxy ethanol
Phenol-ethylene oxide adduct
Glycols, polyethylene, monophenyl ether
Phenoxyethanol [NF]
Polyethylene glycol phenyl ether
.beta.-Hydroxyethyl phenyl ether
HSDB 5595
Phenyl monoglycol ether
PHE-G
PHE-S
Rose ether phenoxyethanol
2-Phenoxyethanol, 99%
EINECS 204-589-7
FR 214
9004-78-8
.beta.-Phenoxyethyl alcohol
alpha-Phenyl-omega-hydroxypoly(oxy-1,2-ethanediyl)
BRN 1364011
HIE492ZZ3T
AI3-00752()C
CHEBI:64275
QCDWFXQBSFUVSP-UHFFFAOYSA-N
Phenoxyethanol (NF)
Poly(oxy-1,2-ethanediyl), alpha-phenyl-omega-hydroxy-
NCGC00090731-01
NCGC00090731-05
DSSTox_CID_1976
DSSTox_RID_76437
DSSTox_GSID_21976
Erisept
Plastiazan-41
CAS-122-99-6
Phenol, ethoxylated
.beta.-Phenoxyethanol
monophenylglycol
phenylcellosolve
Phenoxyethanolum
Phenoxytolarosol
CCRIS 9481
Dalpad A
2-phenyloxyethanol
Newpol EFP
beta-Phenoxyethanol
Poly(oxy-1,2-ethanediyl), ?-phenyl-?-hydroxy-
2-(phenoxy)ethanol
beta-Hydroxyphenetole
2-phenoxy-1-ethanol
Dowanol EP / EPH
beta-phenoxyethylalcohol
Poly(oxy-1,2-ethanediyl), .alpha.-phenyl-.omega.-hydroxy-
ACMC-1BVYG
2-Phenoxyethanol, 9CI
WLN: Q2OR
EC 204-589-7
phenol, ethoxyliert (6eo)
polyethyleneglycolphenylether
AC1L1L7D
AC1Q7D8M
SCHEMBL15708
2-Phenoxyethanol, >=99%
4-06-00-00571 (Beilstein Handbook Reference)
KSC174Q0P
MLS002174254
ethyleneglycol monophenyl ether
Euxyl K 400 (Salt/Mix)
phenol, ethoxyliert, eo 4 mol
Ethylene glycol-monophenyl ether
Jsp001544
2-PHENOXYETHANOL 500ML
CHEMBL1229846
DTXSID9021976
CTK0H4807
phenol, ethoxyliert, eo 30 mol
Ethylene glycol mono phenyl ether
NSC1864
HMS2268A20
NSC-1864
STR04582
ZINC1577061
Tox21_111002
Tox21_113532
Tox21_202111
Tox21_300842
ANW-18088
BBL027410
LS-672
SBB060485
STK802556
2-Phenoxyethanol, analytical standard
Fungal Terminator [veterinary] (TN)
AKOS000118741
Tox21_111002_1
DB11304
MCULE-1828011376
RP20453
RTR-003651
TRA0162661
NCGC00090731-02
NCGC00090731-03
NCGC00090731-04
NCGC00090731-06
NCGC00090731-07
NCGC00090731-08
NCGC00254745-01
NCGC00259660-01
AJ-27363
AN-19469
AN-22895
BC208517
CJ-05434
CJ-24993
Ethylene glycol monophenyl ether, >=90%
LS-72941
SC-47140
SMR000112131
ETHANOL,2-PHENOXY MFC8 H10 O2
ST2417151
TR-003651
FT-0613280
P0115
P1953
ST51046662
2-Phenoxyethanol, tested according to Ph.Eur.
D08359
97692-EP2287158A1
97692-EP2305662A1
97692-EP2372017A1
A805003
SR-01000838345
I01-8824
J-510235
SR-01000838345-2
F1905-6997
Z426194440
Ethylene glycol monophenyl ether, SAJ first grade, >=95.0%
Phenoxyethanol, European Pharmacopoeia (EP) Reference Standard
Phenoxyethanol, United States Pharmacopeia (USP) Reference Standard
InChI=1/C8H10O2/c9-6-7-10-8-4-2-1-3-5-8/h1-5,9H,6-7H
2-Phenoxyethanol, Pharmaceutical Secondary Standard; Certified Reference Material

> <TPSA>
29.5

> <TotalAidCount>
843

> <TotalFormalCharge>
0

> <XLogP>
1.2

> <database>
PubChem Compound

> <matchingCount>
176

> <primaryID>
31236

> <queryTranslation>
7628[CompoundID] OR 244[CompoundID] OR 25059[CompoundID] OR 7618[CompoundID] OR 7641[CompoundID] OR 5053[CompoundID] OR 637511[CompoundID] OR 7714[CompoundID] OR 7762[CompoundID] OR 25429[CompoundID]
OR 8842[CompoundID] OR 7794[CompoundID] OR 637566[CompoundID] OR 7843[CompoundID] OR 174[CompoundID] OR 7870[CompoundID] OR 86102[CompoundID] OR 7888[CompoundID] OR 7896[CompoundID] OR 1140[CompoundID
] OR 8042[CompoundID] OR 8058[CompoundID] OR 8078[CompoundID] OR 8087[CompoundID] OR 8117[CompoundID] OR 8133[CompoundID] OR 115224[CompoundID] OR 8175[CompoundID] OR 8194[CompoundID] OR 445639[Compou
ndID] OR 4944[CompoundID] OR 8294[CompoundID] OR 93541[CompoundID] OR 8360[CompoundID] OR 8363[CompoundID] OR 656612[CompoundID] OR 125098[CompoundID] OR 3352[CompoundID] OR 3303913[CompoundID] OR 648
05[CompoundID] OR 31200[CompoundID] OR 1712058[CompoundID] OR 31236[CompoundID] OR 31239[CompoundID] OR 31265[CompoundID] OR 31266[CompoundID] OR 31276[CompoundID] OR 6950273[CompoundID] OR 518659[Com
poundID] OR 14896[CompoundID] OR 14798[CompoundID] OR 14829[CompoundID] OR 14830[CompoundID] OR 8635[CompoundID] OR 23266[CompoundID] OR 4284[CompoundID] OR 8693[CompoundID] OR 22311[CompoundID] OR 87
59[CompoundID] OR 8785[CompoundID] OR 2723810[CompoundID] OR 8857[CompoundID] OR 3893[CompoundID] OR 9936739[CompoundID] OR 516892[CompoundID] OR 5430[CompoundID] OR 9017[CompoundID] OR 15433[Compound
ID] OR 107720[CompoundID] OR 9552081[CompoundID] OR 164825[CompoundID] OR 10275455[CompoundID] OR 16666[CompoundID] OR 9839306[CompoundID] OR 5282227[CompoundID] OR 23676745[CompoundID] OR 32881[Compo
undID] OR 91581[CompoundID] OR 39800[CompoundID] OR 33344[CompoundID] OR 15962220[CompoundID] OR 33528[CompoundID] OR 5365075[CompoundID] OR 62829[CompoundID] OR 162381[CompoundID] OR 517202[CompoundI
D] OR 6433353[CompoundID] OR 2730[CompoundID] OR 5372405[CompoundID] OR 36081[CompoundID] OR 3120[CompoundID] OR 3017[CompoundID] OR 2969[CompoundID] OR 18827[CompoundID] OR 19518[CompoundID] OR 19658
[CompoundID] OR 38283[CompoundID] OR 2758[CompoundID] OR 10112[CompoundID] OR 10340[CompoundID] OR 712[CompoundID] OR 5794[CompoundID] OR 3347[CompoundID] OR 104150[CompoundID] OR 2912[CompoundID] OR
2450[CompoundID] OR 40326[CompoundID] OR 40585[CompoundID] OR 517055[CompoundID] OR 10913[CompoundID] OR 108242[CompoundID] OR 62097[CompoundID] OR 41679[CompoundID] OR 54680676[CompoundID] OR 62118[C
ompoundID] OR 753[CompoundID] OR 1030[CompoundID] OR 23673837[CompoundID] OR 54678504[CompoundID] OR 11442[CompoundID] OR 11463[CompoundID] OR 22230[CompoundID] OR 440917[CompoundID] OR 6054[CompoundI
D] OR 43234[CompoundID] OR 22629[CompoundID] OR 3039[CompoundID] OR 2735067[CompoundID] OR 6144[CompoundID] OR 702[CompoundID] OR 284[CompoundID] OR 176[CompoundID] OR 91688[CompoundID] OR 22947[Compo
undID] OR 47445[CompoundID] OR 1711973[CompoundID] OR 243[CompoundID] OR 10342051[CompoundID] OR 5281875[CompoundID] OR 3776[CompoundID] OR 6224[CompoundID] OR 104926[CompoundID] OR 8755[CompoundID] O
R 338[CompoundID] OR 123622[CompoundID] OR 23954[CompoundID] OR 6334[CompoundID] OR 2537[CompoundID] OR 24261[CompoundID] OR 23665760[CompoundID] OR 83975[CompoundID] OR 784[CompoundID] OR 24437[Compo
undID] OR 5360315[CompoundID] OR 311[CompoundID] OR 6549[CompoundID] OR 107689[CompoundID] OR 17100[CompoundID] OR 24976875[CompoundID] OR 6654[CompoundID] OR 71245[CompoundID] OR 6442842[CompoundID]
OR 62334[CompoundID] OR 54698175[CompoundID] OR 6328154[CompoundID] OR 24762[CompoundID] OR 440950[CompoundID] OR 7017[CompoundID] OR 5281873[CompoundID] OR 323[CompoundID] OR 5281167[CompoundID] OR 7
175[CompoundID] OR 7292[CompoundID] OR 6335613[CompoundID] OR 7456[CompoundID] OR 7462[CompoundID]

> <resultIndex>
77

> <resultRange>
1-176

> <textQuery>
7628,244,25059,7618,7641,5053,637511,7714,7762,25429,8842,7794,637566,7843,174,7870,86102,7888,7896,1140,8042,8058,8078,8087,8117,8133,115224,8175,8194,445639,4944,8294,93541,8360,8363,656612,125098,3
352,3303913,64805,31200,1712058,31236,31239,31265,31266,31276,6950273,518659,14896,14798,14829,14830,8635,23266,4284,8693,22311,8759,8785,2723810,8857,3893,9936739,516892,5430,9017,15433,107720,955208
1,164825,10275455,16666,9839306,5282227,23676745,32881,91581,39800,33344,15962220,33528,5365075,62829,162381,517202,6433353,2730,5372405,36081,3120,3017,2969,18827,19518,19658,38283,2758,10112,10340,7
12,5794,3347,104150,2912,2450,40326,40585,517055,10913,108242,62097,41679,54680676,62118,753,1030,23673837,54678504,11442,11463,22230,440917,6054,43234,22629,3039,2735067,6144,702,284,176,91688,22947,
47445,1711973,243,10342051,5281875,3776,6224,104926,8755,338,123622,23954,6334,2537,24261,23665760,83975,784,24437,5360315,311,6549,107689,17100,24976875,6654,71245,6442842,62334,54698175,6328154,2476
2,440950,7017,5281873,323,5281167,7175,7292,6335613,7456,7462

$$$$
31,200
  SciTegic10191915303D

 29 29  0  0  0  0            999 V2000
    0.6310   -2.5780    1.8880 S   0  0
   -0.1580   -2.3170    0.2930 P   0  0
   -1.0100   -1.0410    0.5410 O   0  0
   -1.0960   -3.5530    0.1720 O   0  0
    0.6560   -2.1530   -1.0220 O   0  0
    2.6310    3.9040    1.1850 O   0  5
    1.0780    4.7300   -0.0940 O   0  0
    1.5860    3.8340    0.5410 N   0  3
   -0.3930    0.1250    0.5410 C   0  0
    0.9220    2.6050    0.5410 C   0  0
   -0.4840    2.5620    0.5410 C   0  0
   -1.1390    1.3180    0.5410 C   0  0
    1.0120    0.1780    0.5410 C   0  0
    1.6720    1.4180    0.5410 C   0  0
   -1.2770    3.8200    0.5410 C   0  0
   -0.4410   -4.7640   -0.1760 C   0  0
   -0.1290   -1.8890   -2.1780 C   0  0
   -2.2190    1.2750    0.5410 H   0  0
    1.5880   -0.7360    0.5410 H   0  0
    2.7520    1.4590    0.5410 H   0  0
   -0.8910    4.5960    1.2010 H   0  0
   -2.3010    3.6030    0.8470 H   0  0
   -1.3130    4.2280   -0.4690 H   0  0
   -1.0680   -5.6510   -0.2620 H   0  0
    0.3220   -4.9670    0.5740 H   0  0
    0.0620   -4.6170   -1.1330 H   0  0
    0.5470   -1.6640   -3.0040 H   0  0
   -0.8110   -2.7270   -2.3250 H   0  0
   -0.7290   -1.0000   -1.9870 H   0  0
  1  2  2  0
  2  3  1  0
  2  4  1  0
  2  5  1  0
  3  9  1  0
  4 16  1  0
  5 17  1  0
  6  8  1  0
  7  8  2  0
  8 10  1  0
  9 12  2  0
  9 13  1  0
 10 11  2  0
 10 14  1  0
 11 12  1  0
 11 15  1  0
 13 14  2  0
 12 18  1  0
 13 19  1  0
 14 20  1  0
 15 21  1  0
 15 22  1  0
 15 23  1  0
 16 24  1  0
 16 25  1  0
 16 26  1  0
 17 27  1  0
 17 28  1  0
 17 29  1  0
M  CHG  2   6  -1   8   1
M  END
> <Name>
31,200

> <OBJECTID>
9223372367570599947

> <ActiveAidCount>
15

> <AtomChiralCount>
0

> <AtomChiralDefCount>
0

> <AtomChiralUndefCount>
0

> <BondChiralCount>
0

> <BondChiralDefCount>
0

> <BondChiralUndefCount>
0

> <CID>
31200

> <CanonicalSmiles>
CC1=C(C=CC(=C1)OP(=S)(OC)OC)[N+](=O)[O-]

> <Complexity>
313

> <CovalentUnitCount>
1

> <CreateDate>
2005/03/27 00:00

> <HeavyAtomCount>
17

> <HydrogenBondAcceptorCount>
6

> <HydrogenBondDonorCount>
0

> <IUPACName>
dimethoxy-(3-methyl-4-nitrophenoxy)-sulfanylidene-lambda5-phosphane

> <InChI>
InChI=1S/C9H12NO5PS/c1-7-6-8(4-5-9(7)10(11)12)15-16(17,13-2)14-3/h4-6H,1-3H3

> <InChIKey>
ZNOLGFHPUIJIMJ-UHFFFAOYSA-N

> <IsomericSmiles>
CC1=C(C=CC(=C1)OP(=S)(OC)OC)[N+](=O)[O-]

> <IsotopeAtomCount>
0

> <MeSHHeading>
Fenitrothion

> <MeSHTerm>
Agria 1050
Fenitrothion
Nitrophos
Sumithione
Methylnitrophos
Folithion
Metathion
Sumithion

> <MolecularFormula>
C9H12NO5PS

> <MolecularWeight>
277.24

> <PharmAction>
Neurotransmitter Agents
Molecular Mechanisms of Pharmacological Action
Physiological Effects of Drugs
Agrochemicals
Insecticides
Toxic Actions
Specialty Uses of Chemicals
Enzyme Inhibitors
Chemical Actions and Uses
Pesticides
Cholinesterase Inhibitors
Pharmacologic Actions
Cholinergic Agents

> <RotatableBondCount>
4

> <Smiles>
S=P(OC)(OC)Oc1ccc(c(C)c1)[N+](=O)[O-]

> <SourceCategory>
Legacy Depositors
Chemical Vendors
Research and Development
Curation Efforts
Governmental Organizations
NIH Initiatives
Subscription Services
Journal Publishers

> <Synonym>
FENITROTHION
122-14-5
Phenitrothion
Sumithion
Methylnitrophos
Folithion
Metathion
Nitrophos
Oleosumifene
Ovadofos
Owadofos
Owadophos
Sumifene
Verthion
Cekutrothion
Metathione
Metathionine
Accothion
Agrothion
Akotion
Arbogal
Falithion
Fenitox
Metation
Novathion
Nuvanol
Cyfen
Cytel
Kotion
Macbar
Mglawik F
Folithion ec 50
MEP (Pesticide)
Super Sumithion
Pennwalt C-4852
Agriya 1050
Sumitomo S-1102A
Agria 1050
Bayer S 5660
Fentrothione
Oleometathion
Fenition
O,O-Dimethyl O-4-nitro-m-tolyl phosphorothioate
Sumigran
Insectigas F
Monsanto CP 47114
Metathionine E50
American cyanamid CL-47,300
Bayer 41831
Metation E50
Metathion E 50
Fenitrothion [BAN]
O,O-Dimethyl O-(3-methyl-4-nitrophenyl) phosphorothioate
Tionfos 50 LE
Caswell No. 373
S 112A
Fenitrotion
Aceothion
Dicofen
OMS 43
Sumithian
Fenitrotion (Hungarian)
Cyten
O,O-Dimethyl O-(3-methyl-4-nitrophenyl) thiophosphate
Dimethyl 4-nitro-m-tolyl phosphorothionate
UNII-W8M4X3Y7ZY
C9H12NO5PS
Phosphorothioic acid, O,O-dimethyl O-(3-methyl-4-nitrophenyl) ester
BAY 41831
Metathion E-50
ENT 25,715
Metathio E-50
Metathionine E-50
Metation E-50
S-1102A
Dimethyl 3-methyl-4-nitrophenyl phosphorothionate
CCRIS 1559
AC-47300
CL 47300
CP 47114
EI 47300
HSDB 1590
O,O-Dimethyl O-(4-nitro-3-methylphenyl)thiophosphate
EINECS 204-524-2
Fenitrothion [BSI:ISO]
8057HC
EPA Pesticide Chemical Code 105901
BRN 1887367
W8M4X3Y7ZY
MEP (Phosphorus insecticide)
O,O-Dimetil-O-(3-metil-4-nitro-fenil)-monotiofosfato
O,O-Dimethyl-O-(3-methyl-4-nitrofenyl)-monothiofosfaat
AI3-25715
CHEBI:34757
Phosphorothioic acid, O,O-dimethyl O-(4-nitro-m-tolyl) ester
Dimethyl-(3-methyl-4-nitrophenyl)thiophosphate
m-Cresol, 4-nitro-, O-ester with O,O-dimethyl phosphorothioate
C-9146
Dimethyl (3-methyl-4-nitrophenyl) thiophosphate
ZNOLGFHPUIJIMJ-UHFFFAOYSA-N
3-Methyl-4-nitrophenyl dimethyl phosphorothioate
O,O-Dimethyl O-(4-nitro-3-methylphenyl) thiophosphate
O,O-Dimethyl O-(3-methyl-4-nitrophenyl) phosphorothionate
O,O-Dimethyl-O-(3-methyl-4-nitrofenyl)-monothiofosfaat [Dutch]
O,O-Dimetil-O-(3-metil-4-nitrofenil) fosforotioato (Portugese)
O,O-Dimethyl-O-(4-nitro-5-methylphenyl)-thionophosphat [German]
O,O-Dimetil-O-(3-metil-4-nitro-fenil)-monotiofosfato [Italian]
Thiophosphate de O,O-dimethyle et de O-(3-methyl-4-nitrophenyle)
Tionofosforan O,O-dwumetylo-O-(3-metylo)-4-nitrofenylowy [Polish]
O,O-Dimethyl-O-(3-methyl-4-nitro-phenyl)-monothiophosphat [German]
O,O-Dimethyl O-4-nitro-m-tolyl thiophosphate
S 5660
Thiophosphate de O,O-dimethyle et de O-(3-methyl-4-nitrophenyle) [French]
O,O-DiMe O-(3-methyl-4-nitrophenyl) thiophosphate
O,O-Dimetil-O-(3-metil-4-nitrofenil) fosforotioato
O,O-dimethyl O-(3-methyl-4-nitrophenyl)phosphorothioate
O,O-Dimethyl-O-(4-nitro-5-methylphenyl)-thionophosphate
Sumithione
O,O-Dimethyl-O-(3-methyl-4-nitro-phenyl)-monothiophosphate
Sumithion Super
dimethoxy-(3-methyl-4-nitrophenoxy)-sulfanylidene-?^{5}-phosphane
Sumi Oil
Sumithion 20F
Sumithion 20MC
Sumithion 50EC
Fenitrothion solution
Fenitrothion (MEP)
PubChem2339
AC1Q7FKR
Sumithion Super 1000EC
AC1L1L4G
DSSTox_CID_12613
DSSTox_RID_79004
DSSTox_GSID_32613
SCHEMBL26916
BIDD:ER0336
CHEMBL347698
ZINC1434
s 1102a
DTXSID4032613
O,O-Dimethyl-O-(4-nitro-5-methylphenyl)-thionophosphat
CTK2H8821
O,O-Dimethyl-O-(3-methyl-4-nitro-phenyl)-monothiophosphat
Tionofosforan O,O-dwumetylo-O-(3-metylo)-4-nitrofenylowy
BAY S 5660
Tox21_300906
MFCD00055407
Phosphorothioic Acid O,O-Dimethyl O-(3-methyl-4-nitrophenyl) Ester
AKOS015907800
KS-5043
Fenitrothion 1000 microg/mL in Toluene
NCGC00091902-04
NCGC00166191-01
NCGC00166191-02
NCGC00166191-03
NCGC00254810-01
AN-43424
CAS-122-14-5
CC-28381
Fenitrothion 10 microg/mL in Cyclohexane
I470
ZB000334
Fenitrothion 100 microg/mL in Cyclohexane
Fenitrothion 100 microg/mL in Acetonitrile
LS-108871
TL8000590
FT-0603325
C14442
26846-EP2274983A1
26846-EP2275422A1
26846-EP2280009A1
26846-EP2292608A1
26846-EP2305658A1
26846-EP2305662A1
26846-EP2308857A1
26846-EP2308858A1
26846-EP2311816A1
26846-EP2311817A1
26846-EP2314583A1
Fenitrothion, PESTANAL(R), analytical standard
122F145
A804852
C-17432
I14-2655
J-004767
dimethoxy-(3-methyl-4-nitrophenoxy)-sulfanylidenephosphorane
dimethoxy-(3-methyl-4-nitro-phenoxy)-thioxo-$l^{5}-phosphane
methyl 3-methyl-4-nitrophenyl methoxy(sulfanylidene)phosphonite
O,O-DIMETHYL O-3-METHYL-4-NITROPHENYL PHOSPHOROTHIOATE
dimethoxy-(3-methyl-4-nitro-phenoxy)-sulfanylidene-$l^{5}-phosphane
O,O-Dimethyl-(3-methyl-4-nitrophenyl) ester of phosphorothioic acid
Fenitrothion solution, 100 ng/muL in cyclohexane, PESTANAL(R), analytical standard

> <TPSA>
106

> <TotalAidCount>
318

> <TotalFormalCharge>
0

> <XLogP>
3.3

> <database>
PubChem Compound

> <matchingCount>
176

> <primaryID>
31200

> <queryTranslation>
7628[CompoundID] OR 244[CompoundID] OR 25059[CompoundID] OR 7618[CompoundID] OR 7641[CompoundID] OR 5053[CompoundID] OR 637511[CompoundID] OR 7714[CompoundID] OR 7762[CompoundID] OR 25429[CompoundID]
OR 8842[CompoundID] OR 7794[CompoundID] OR 637566[CompoundID] OR 7843[CompoundID] OR 174[CompoundID] OR 7870[CompoundID] OR 86102[CompoundID] OR 7888[CompoundID] OR 7896[CompoundID] OR 1140[CompoundID
] OR 8042[CompoundID] OR 8058[CompoundID] OR 8078[CompoundID] OR 8087[CompoundID] OR 8117[CompoundID] OR 8133[CompoundID] OR 115224[CompoundID] OR 8175[CompoundID] OR 8194[CompoundID] OR 445639[Compou
ndID] OR 4944[CompoundID] OR 8294[CompoundID] OR 93541[CompoundID] OR 8360[CompoundID] OR 8363[CompoundID] OR 656612[CompoundID] OR 125098[CompoundID] OR 3352[CompoundID] OR 3303913[CompoundID] OR 648
05[CompoundID] OR 31200[CompoundID] OR 1712058[CompoundID] OR 31236[CompoundID] OR 31239[CompoundID] OR 31265[CompoundID] OR 31266[CompoundID] OR 31276[CompoundID] OR 6950273[CompoundID] OR 518659[Com
poundID] OR 14896[CompoundID] OR 14798[CompoundID] OR 14829[CompoundID] OR 14830[CompoundID] OR 8635[CompoundID] OR 23266[CompoundID] OR 4284[CompoundID] OR 8693[CompoundID] OR 22311[CompoundID] OR 87
59[CompoundID] OR 8785[CompoundID] OR 2723810[CompoundID] OR 8857[CompoundID] OR 3893[CompoundID] OR 9936739[CompoundID] OR 516892[CompoundID] OR 5430[CompoundID] OR 9017[CompoundID] OR 15433[Compound
ID] OR 107720[CompoundID] OR 9552081[CompoundID] OR 164825[CompoundID] OR 10275455[CompoundID] OR 16666[CompoundID] OR 9839306[CompoundID] OR 5282227[CompoundID] OR 23676745[CompoundID] OR 32881[Compo
undID] OR 91581[CompoundID] OR 39800[CompoundID] OR 33344[CompoundID] OR 15962220[CompoundID] OR 33528[CompoundID] OR 5365075[CompoundID] OR 62829[CompoundID] OR 162381[CompoundID] OR 517202[CompoundI
D] OR 6433353[CompoundID] OR 2730[CompoundID] OR 5372405[CompoundID] OR 36081[CompoundID] OR 3120[CompoundID] OR 3017[CompoundID] OR 2969[CompoundID] OR 18827[CompoundID] OR 19518[CompoundID] OR 19658
[CompoundID] OR 38283[CompoundID] OR 2758[CompoundID] OR 10112[CompoundID] OR 10340[CompoundID] OR 712[CompoundID] OR 5794[CompoundID] OR 3347[CompoundID] OR 104150[CompoundID] OR 2912[CompoundID] OR
2450[CompoundID] OR 40326[CompoundID] OR 40585[CompoundID] OR 517055[CompoundID] OR 10913[CompoundID] OR 108242[CompoundID] OR 62097[CompoundID] OR 41679[CompoundID] OR 54680676[CompoundID] OR 62118[C
ompoundID] OR 753[CompoundID] OR 1030[CompoundID] OR 23673837[CompoundID] OR 54678504[CompoundID] OR 11442[CompoundID] OR 11463[CompoundID] OR 22230[CompoundID] OR 440917[CompoundID] OR 6054[CompoundI
D] OR 43234[CompoundID] OR 22629[CompoundID] OR 3039[CompoundID] OR 2735067[CompoundID] OR 6144[CompoundID] OR 702[CompoundID] OR 284[CompoundID] OR 176[CompoundID] OR 91688[CompoundID] OR 22947[Compo
undID] OR 47445[CompoundID] OR 1711973[CompoundID] OR 243[CompoundID] OR 10342051[CompoundID] OR 5281875[CompoundID] OR 3776[CompoundID] OR 6224[CompoundID] OR 104926[CompoundID] OR 8755[CompoundID] O
R 338[CompoundID] OR 123622[CompoundID] OR 23954[CompoundID] OR 6334[CompoundID] OR 2537[CompoundID] OR 24261[CompoundID] OR 23665760[CompoundID] OR 83975[CompoundID] OR 784[CompoundID] OR 24437[Compo
undID] OR 5360315[CompoundID] OR 311[CompoundID] OR 6549[CompoundID] OR 107689[CompoundID] OR 17100[CompoundID] OR 24976875[CompoundID] OR 6654[CompoundID] OR 71245[CompoundID] OR 6442842[CompoundID]
OR 62334[CompoundID] OR 54698175[CompoundID] OR 6328154[CompoundID] OR 24762[CompoundID] OR 440950[CompoundID] OR 7017[CompoundID] OR 5281873[CompoundID] OR 323[CompoundID] OR 5281167[CompoundID] OR 7
175[CompoundID] OR 7292[CompoundID] OR 6335613[CompoundID] OR 7456[CompoundID] OR 7462[CompoundID]

> <resultIndex>
78

> <resultRange>
1-176

> <textQuery>
7628,244,25059,7618,7641,5053,637511,7714,7762,25429,8842,7794,637566,7843,174,7870,86102,7888,7896,1140,8042,8058,8078,8087,8117,8133,115224,8175,8194,445639,4944,8294,93541,8360,8363,656612,125098,3
352,3303913,64805,31200,1712058,31236,31239,31265,31266,31276,6950273,518659,14896,14798,14829,14830,8635,23266,4284,8693,22311,8759,8785,2723810,8857,3893,9936739,516892,5430,9017,15433,107720,955208
1,164825,10275455,16666,9839306,5282227,23676745,32881,91581,39800,33344,15962220,33528,5365075,62829,162381,517202,6433353,2730,5372405,36081,3120,3017,2969,18827,19518,19658,38283,2758,10112,10340,7
12,5794,3347,104150,2912,2450,40326,40585,517055,10913,108242,62097,41679,54680676,62118,753,1030,23673837,54678504,11442,11463,22230,440917,6054,43234,22629,3039,2735067,6144,702,284,176,91688,22947,
47445,1711973,243,10342051,5281875,3776,6224,104926,8755,338,123622,23954,6334,2537,24261,23665760,83975,784,24437,5360315,311,6549,107689,17100,24976875,6654,71245,6442842,62334,54698175,6328154,2476
2,440950,7017,5281873,323,5281167,7175,7292,6335613,7456,7462

$$$$
25,429
  SciTegic10191915303D

 23 24  0  0  0  0            999 V2000
    4.5740   -1.9120    0.2150 C   0  0
    3.9670   -0.6350    0.0990 O   0  0
    2.6390   -0.7070    0.0900 C   0  0
    2.0200   -1.7420    0.1660 O   0  0
    1.9790    0.4850   -0.0140 N   0  0
    0.5080    0.5140   -0.0330 C   0  0
   -0.2910   -0.6150    0.0470 N   0  0
   -1.5470   -0.1420   -0.0040 C   0  0
   -1.5250    1.2350   -0.1150 C   0  0
   -0.2520    1.6660   -0.1370 N   0  0
   -2.7270    1.9810   -0.1860 C   0  0
   -3.9650    1.2890   -0.1450 C   0  0
   -3.9860   -0.1270   -0.0310 C   0  0
   -2.7690   -0.8530    0.0390 C   0  0
    5.6540   -1.7850    0.1390 H   0  0
    4.2090   -2.3850    1.1290 H   0  0
    4.2520   -2.5230   -0.6270 H   0  0
    2.4960    1.3380   -0.0760 H   0  0
    0.0700    2.6040   -0.2090 H   0  0
   -2.7050    3.0570   -0.2720 H   0  0
   -4.8910    1.8400   -0.1970 H   0  0
   -4.9300   -0.6520    0.0000 H   0  0
   -2.7810   -1.9300    0.1250 H   0  0
  1  2  1  0
  2  3  1  0
  3  4  2  0
  3  5  1  0
  5  6  1  0
  6  7  2  0
  6 10  1  0
  7  8  1  0
  8  9  1  0
  8 14  2  0
  9 10  1  0
  9 11  2  0
 11 12  1  0
 12 13  2  0
 13 14  1  0
  1 15  1  0
  1 16  1  0
  1 17  1  0
  5 18  1  0
 10 19  1  0
 11 20  1  0
 12 21  1  0
 13 22  1  0
 14 23  1  0
M  END
> <Name>
25,429

> <OBJECTID>
9223372371865567243

> <ActiveAidCount>
113

> <AtomChiralCount>
0

> <AtomChiralDefCount>
0

> <AtomChiralUndefCount>
0

> <BondChiralCount>
0

> <BondChiralDefCount>
0

> <BondChiralUndefCount>
0

> <CID>
25429

> <CanonicalSmiles>
COC(=O)NC1=NC2=CC=CC=C2N1

> <Complexity>
222

> <CovalentUnitCount>
1

> <CreateDate>
2005/03/26 00:00

> <HeavyAtomCount>
14

> <HydrogenBondAcceptorCount>
3

> <HydrogenBondDonorCount>
2

> <IUPACName>
methyl N-(1H-benzimidazol-2-yl)carbamate

> <InChI>
InChI=1S/C9H9N3O2/c1-14-9(13)12-8-10-6-4-2-3-5-7(6)11-8/h2-5H,1H3,(H2,10,11,12,13)

> <InChIKey>
TWFZGCMQGLPBSX-UHFFFAOYSA-N

> <IsomericSmiles>
COC(=O)NC1=NC2=CC=CC=C2N1

> <IsotopeAtomCount>
0

> <MeSHHeading>
carbendazim

> <MeSHTerm>
mecarzole monohydrochloride
mecarzole monophosphate
Bavistin
mecarzole triphosphinate
carbendazine
methyl-N-(2-benzimidazolyl)carbamate
carbendazim phosphate
mecarzole
medamine
carbendazim
mecarzole mononitrate
carbendazin
methylbenzimidazole-2-ylcarbamate
mecarzole monosodium salt
IPO-1250
methyl 2-benzimidazil carbamate
G-665
FB642
2-(methoxycarbonylamino)benzimidazole
Bavistan
methyl-2-benzimidazole carbamate
carbendazyme
mecarzole monosulfate
methoxybenzimidazole-2-carbamic acid
benzimidazolecarbamate methyl ester
1h-benzimidazole-2-carbamic acid, methyl ester
FB-642
mekarzole
mecarzole monophosphinate
carbendazole

> <MolecularFormula>
C9H9N3O2

> <MolecularWeight>
191.19

> <PharmAction>
Toxic Actions
Pharmacologic Actions
Chemical Actions and Uses
Anti-Infective Agents
Anthelmintics
Pesticides
Fungicides, Industrial
Therapeutic Uses
Antinematodal Agents
Mutagens
Specialty Uses of Chemicals
Noxae
Agrochemicals
Antiparasitic Agents

> <RotatableBondCount>
2

> <Smiles>
COC(Nc1[nH]c(cccc2)c2n1)=O

> <SourceCategory>
Chemical Vendors
Legacy Depositors
Research and Development
Curation Efforts
Governmental Organizations
NIH Initiatives
Subscription Services
Journal Publishers

> <Synonym>
Carbendazim
10605-21-7
Carbendazole
Mecarzole
Bavistin
Carbendazime
Carbendazol
Bavistan
Derosal
Thicoper
Medamine
Funaben
Methyl 2-benzimidazolecarbamate
BMK (fungicide)
Carbendazym
Equitdazin
Garbenda
Kemdazin
Supercarb
Agrizim
Battal
Bengard
Bitosen
Custos
Delsene
Karben
Kolfugo
Stempor
Myco
Bavistin 3460
carbendazine
Methyl benzimidazol-2-ylcarbamate
Falicarben
Pillarstin
Fungisol
Triticol
Stein
Spin
Bercema-Bitosen
Kolfugo Extra
methyl 1H-benzo[d]imidazol-2-ylcarbamate
Preventol BCM
Antibac MF
Carben VL
Funaben 3
BCM (fungicide)
2-MBC
IPO Y
Methyl benzimidazolylcarbamate
Benzimidazolecarbamic
Funaben 50
Jkatein
METHYL 1H-BENZIMIDAZOL-2-YLCARBAMATE
Preparation G 665
2-(Methoxycarbamoyl)benzimidazole
A 118 (pesticide)
2-(Carbomethoxyamino)benzimidazole
Carbamic acid, 1H-benzimidazol-2-yl-, methyl ester
Methyl 1H-benzimidazole-2-carbamate
carbendazin
carbendazyme
mekarzole
Kolfugo 25 FW
2-(Methoxycarbonylamino)-benzimidazole
BAS 67054F
1H-Benzimidazole-2-carbamic acid, methyl ester
2-Benzimidazolecarbamic acid, methyl ester
Carbendazim [BSI:ISO]
BMK (VAN)
Methyl N-2-benzimidazolecarbamate
1H-Benzimidazol-2-ylcarbamic acid methyl ester
Methyl benzimidazolecarbamate
BAS-3460
CTR 6669
2-(Methoxycarbonylamino)benzimidazole
Benzimidazole-2-carbamic acid, methyl ester
EK 578
HOE 17411
G 665
Mercarzole
Zhiweiling
Bavistine
CCRIS 1553
Fungoxan
Jkstein
Protek
Sarfun
Subeej
2-(Methoxy-carbonylamino)-benzimidazol
HSDB 6581
U 32104
Bavistin FL
methyl N-(1H-benzimidazol-2-yl)carbamate
MBC (VAN)
Carbendazime [ISO-French]
IPO-1250
Spin (pesticide)
Karben flo Stefes
Karben Stefes Flo
Olgin (fungicide)
BA 67054F
Bavistin 25SD
Bavistin 50SD
Delsene 10
Derosal 60PM
Kolfugo 25FW
UNII-H75J14AA89
2-[(Methoxycarbonyl)amino]benzimidazole
methyl 2-benzimidazil carbamate
Methyl 2-benzimidazolylcarbamate
methyl-2-benzimidazole carbamate
BMK
methylbenzimidazole-2-ylcarbamate
BAS 3460F
Methyl 1H-benzimidazolylcarbamate
Benzimidazole carbamate de methyle
benzimidazolecarbamate methyl ester
Carbamic acid, N-1H-benzimidazol-2-yl-, methyl ester
BAS 3460 F
Methyl 1H-benzimidazol-2-ylcarbamate (9CI)
IPO 1250
methoxybenzimidazole-2-carbamic acid
EINECS 234-232-0
BAS-67054
methyl-N-(2-benzimidazolyl)carbamate
1H-Benzimidazol-2-ylcarbamic acid, methyl ester
RCRA waste no. U372
EPA Pesticide Chemical Code 115001
EPA Pesticide Chemical Code 128872
NSC 109874
U-32.104
2-benzimidazolecarbamic acid methyl ester
CHEMBL70971
2-Methyl benzimidazolecarbamate
Benzimidazole carbamate de methyle [French]
MLS002701961
C9H9N3O2
CHEBI:3392
TWFZGCMQGLPBSX-UHFFFAOYSA-N
2-(Methoxy-carbonylamino)-benzimidazol [German]
Carbamic acid, 1H-benzimidazolyl-, methyl ester
H75J14AA89
2-(Methoxycarboxamido)benzimidazole
BAS 3460
CTR-6669
methyl N-(2-benzimidazolyl)carbamate
N-benzimidazol-2-ylmethoxycarboxamide
2-Bezimidazolecarbamic acid methyl ester
A 118
DSSTox_CID_4729
1h-benzimidazole-2-carbamic acid methyl ester
methyl N-(1H-1,3-benzodiazol-2-yl)carbamate
DSSTox_RID_77513
1H-Benzimidazol-2-yl-carbamic acid, methyl ester
DSSTox_GSID_24729
37953-07-4
KID PEST PROJECT (CARBENDAZIM) (SEE ALSO CARBENDAZIM)
Carbamic acid, N-1H-benzimidazol-2-yl-, methyl ester;Methyl 1H-benzo[d]imidazol-2-ylcarbamate
162976-69-4
CAS-10605-21-7
2-(Methoxy-carbonylamino)-benzimidazol (GERMAN)
Carbate
Methomyl Technical
FB642
Carbendazim solution
Carbendazol, JMAF
Tripart defensor FL
Carbendazim, 97%
Turfclear (Salt/Mix)
BMC?
ChemDivAM_000201
G-665
ChemDiv1_000052
SCHEMBL21051
BIDD:ER0282
AC1L193X
AC1Q606F
Albendazole Impurity E (EP),
CAR076
Carbendazim, analytical standard
2-carbomethoxyamino-benzimidazole
DTXSID4024729
methyl benzimidazole-2-carbamate
SCHEMBL19926051
CTK8H1642
HMS587C08
KS-00000INA
methyl 2-benzimidazolyl-carbamate
ZINC43475
Tox21_202295
Tox21_300478
2-(carbomethoxy-amino)-benzimidazole
BDBM50116313
HOE-17411
LS-418
Methyl 1H-2-benzimidazolecarbaminate
Methyl N-benzimidazol-2-yl-carbamate
MFCD00055390
NSC109874
SBB057110
AKOS002384358
CCG-101273
CS-8030
DB13009
KS-5360
MCULE-6012353785
NSC-109874
2-(Methoxy-carbonylamino)-benzimidazole
NCGC00090706-01
NCGC00090706-02
NCGC00090706-03
NCGC00090706-04
NCGC00254328-01
NCGC00259844-01
105268-95-9
AC-10590
BP-21318
HY-13582
M143
NCI60_000240
SC-46176
SMR000304463
ST020591
ZB001332
Methyl 1H-benzimidazol-2-ylcarbamate, 9CI
FT-0602933
C10897
Carbendazim, PESTANAL(R), analytical standard
605C217
AF-962/00515023
SR-01000390861
(1H-Benzoimidazol-2-yl)-carbamic acid methyl ester
I14-2653
J-001536
N-1H-Benzimidazol-2-yl-carbamic Acid Methyl Ester
SR-01000390861-1
Carbendazim, certified reference material, TraceCERT(R)
F0266-0908
Fenbendazole impurity A, European Pharmacopoeia (EP) Reference Standard
Fenbendazole Related Compound A, United States Pharmacopeia (USP) Reference Standard
102040-01-7
110342-67-1
212384-28-6
39413-19-9

> <TPSA>
67

> <TotalAidCount>
1323

> <TotalFormalCharge>
0

> <XLogP>
1.5

> <database>
PubChem Compound

> <matchingCount>
176

> <primaryID>
25429

> <queryTranslation>
7628[CompoundID] OR 244[CompoundID] OR 25059[CompoundID] OR 7618[CompoundID] OR 7641[CompoundID] OR 5053[CompoundID] OR 637511[CompoundID] OR 7714[CompoundID] OR 7762[CompoundID] OR 25429[CompoundID]
OR 8842[CompoundID] OR 7794[CompoundID] OR 637566[CompoundID] OR 7843[CompoundID] OR 174[CompoundID] OR 7870[CompoundID] OR 86102[CompoundID] OR 7888[CompoundID] OR 7896[CompoundID] OR 1140[CompoundID
] OR 8042[CompoundID] OR 8058[CompoundID] OR 8078[CompoundID] OR 8087[CompoundID] OR 8117[CompoundID] OR 8133[CompoundID] OR 115224[CompoundID] OR 8175[CompoundID] OR 8194[CompoundID] OR 445639[Compou
ndID] OR 4944[CompoundID] OR 8294[CompoundID] OR 93541[CompoundID] OR 8360[CompoundID] OR 8363[CompoundID] OR 656612[CompoundID] OR 125098[CompoundID] OR 3352[CompoundID] OR 3303913[CompoundID] OR 648
05[CompoundID] OR 31200[CompoundID] OR 1712058[CompoundID] OR 31236[CompoundID] OR 31239[CompoundID] OR 31265[CompoundID] OR 31266[CompoundID] OR 31276[CompoundID] OR 6950273[CompoundID] OR 518659[Com
poundID] OR 14896[CompoundID] OR 14798[CompoundID] OR 14829[CompoundID] OR 14830[CompoundID] OR 8635[CompoundID] OR 23266[CompoundID] OR 4284[CompoundID] OR 8693[CompoundID] OR 22311[CompoundID] OR 87
59[CompoundID] OR 8785[CompoundID] OR 2723810[CompoundID] OR 8857[CompoundID] OR 3893[CompoundID] OR 9936739[CompoundID] OR 516892[CompoundID] OR 5430[CompoundID] OR 9017[CompoundID] OR 15433[Compound
ID] OR 107720[CompoundID] OR 9552081[CompoundID] OR 164825[CompoundID] OR 10275455[CompoundID] OR 16666[CompoundID] OR 9839306[CompoundID] OR 5282227[CompoundID] OR 23676745[CompoundID] OR 32881[Compo
undID] OR 91581[CompoundID] OR 39800[CompoundID] OR 33344[CompoundID] OR 15962220[CompoundID] OR 33528[CompoundID] OR 5365075[CompoundID] OR 62829[CompoundID] OR 162381[CompoundID] OR 517202[CompoundI
D] OR 6433353[CompoundID] OR 2730[CompoundID] OR 5372405[CompoundID] OR 36081[CompoundID] OR 3120[CompoundID] OR 3017[CompoundID] OR 2969[CompoundID] OR 18827[CompoundID] OR 19518[CompoundID] OR 19658
[CompoundID] OR 38283[CompoundID] OR 2758[CompoundID] OR 10112[CompoundID] OR 10340[CompoundID] OR 712[CompoundID] OR 5794[CompoundID] OR 3347[CompoundID] OR 104150[CompoundID] OR 2912[CompoundID] OR
2450[CompoundID] OR 40326[CompoundID] OR 40585[CompoundID] OR 517055[CompoundID] OR 10913[CompoundID] OR 108242[CompoundID] OR 62097[CompoundID] OR 41679[CompoundID] OR 54680676[CompoundID] OR 62118[C
ompoundID] OR 753[CompoundID] OR 1030[CompoundID] OR 23673837[CompoundID] OR 54678504[CompoundID] OR 11442[CompoundID] OR 11463[CompoundID] OR 22230[CompoundID] OR 440917[CompoundID] OR 6054[CompoundI
D] OR 43234[CompoundID] OR 22629[CompoundID] OR 3039[CompoundID] OR 2735067[CompoundID] OR 6144[CompoundID] OR 702[CompoundID] OR 284[CompoundID] OR 176[CompoundID] OR 91688[CompoundID] OR 22947[Compo
undID] OR 47445[CompoundID] OR 1711973[CompoundID] OR 243[CompoundID] OR 10342051[CompoundID] OR 5281875[CompoundID] OR 3776[CompoundID] OR 6224[CompoundID] OR 104926[CompoundID] OR 8755[CompoundID] O
R 338[CompoundID] OR 123622[CompoundID] OR 23954[CompoundID] OR 6334[CompoundID] OR 2537[CompoundID] OR 24261[CompoundID] OR 23665760[CompoundID] OR 83975[CompoundID] OR 784[CompoundID] OR 24437[Compo
undID] OR 5360315[CompoundID] OR 311[CompoundID] OR 6549[CompoundID] OR 107689[CompoundID] OR 17100[CompoundID] OR 24976875[CompoundID] OR 6654[CompoundID] OR 71245[CompoundID] OR 6442842[CompoundID]
OR 62334[CompoundID] OR 54698175[CompoundID] OR 6328154[CompoundID] OR 24762[CompoundID] OR 440950[CompoundID] OR 7017[CompoundID] OR 5281873[CompoundID] OR 323[CompoundID] OR 5281167[CompoundID] OR 7
175[CompoundID] OR 7292[CompoundID] OR 6335613[CompoundID] OR 7456[CompoundID] OR 7462[CompoundID]

> <resultIndex>
79

> <resultRange>
1-176

> <textQuery>
7628,244,25059,7618,7641,5053,637511,7714,7762,25429,8842,7794,637566,7843,174,7870,86102,7888,7896,1140,8042,8058,8078,8087,8117,8133,115224,8175,8194,445639,4944,8294,93541,8360,8363,656612,125098,3
352,3303913,64805,31200,1712058,31236,31239,31265,31266,31276,6950273,518659,14896,14798,14829,14830,8635,23266,4284,8693,22311,8759,8785,2723810,8857,3893,9936739,516892,5430,9017,15433,107720,955208
1,164825,10275455,16666,9839306,5282227,23676745,32881,91581,39800,33344,15962220,33528,5365075,62829,162381,517202,6433353,2730,5372405,36081,3120,3017,2969,18827,19518,19658,38283,2758,10112,10340,7
12,5794,3347,104150,2912,2450,40326,40585,517055,10913,108242,62097,41679,54680676,62118,753,1030,23673837,54678504,11442,11463,22230,440917,6054,43234,22629,3039,2735067,6144,702,284,176,91688,22947,
47445,1711973,243,10342051,5281875,3776,6224,104926,8755,338,123622,23954,6334,2537,24261,23665760,83975,784,24437,5360315,311,6549,107689,17100,24976875,6654,71245,6442842,62334,54698175,6328154,2476
2,440950,7017,5281873,323,5281167,7175,7292,6335613,7456,7462

$$$$
25,059
  SciTegic10191915303D

 10  9  0  0  0  0            999 V2000
    3.0920    0.2110    0.0000 N   0  0
    1.9470    0.3970    0.0000 C   0  0
    0.5060    0.6300    0.0000 C   0  0
   -0.2170   -0.6900    0.0000 C   0  0
    0.3930   -1.7330    0.0000 O   0  0
   -1.5830   -0.6900    0.0000 N   0  0
    0.0180    1.6280    1.5710 Br  0  0
    0.0180    1.6280   -1.5710 Br  0  0
   -2.0860   -1.5540    0.0000 H   0  0
   -2.0860    0.1740    0.0000 H   0  0
  1  2  3  0
  2  3  1  0
  3  4  1  0
  3  7  1  0
  3  8  1  0
  4  5  2  0
  4  6  1  0
  6  9  1  0
  6 10  1  0
M  END
> <Name>
25,059

> <OBJECTID>
9223372376160534539

> <ActiveAidCount>
9

> <AtomChiralCount>
0

> <AtomChiralDefCount>
0

> <AtomChiralUndefCount>
0

> <BondChiralCount>
0

> <BondChiralDefCount>
0

> <BondChiralUndefCount>
0

> <CID>
25059

> <CanonicalSmiles>
C(#N)C(C(=O)N)(Br)Br

> <Complexity>
156

> <CovalentUnitCount>
1

> <CreateDate>
2005/03/26 00:00

> <HeavyAtomCount>
8

> <HydrogenBondAcceptorCount>
2

> <HydrogenBondDonorCount>
1

> <IUPACName>
2,2-dibromo-2-cyanoacetamide

> <InChI>
InChI=1S/C3H2Br2N2O/c4-3(5,1-6)2(7)8/h(H2,7,8)

> <InChIKey>
UUIVKBHZENILKB-UHFFFAOYSA-N

> <IsomericSmiles>
C(#N)C(C(=O)N)(Br)Br

> <IsotopeAtomCount>
0

> <MeSHHeading>
2,2-dibromo-3-nitrilopropionamide

> <MeSHTerm>
2,2-dibromo-3-nitrilopropionamide

> <MolecularFormula>
C3H2Br2N2O

> <MolecularWeight>
241.87

> <RotatableBondCount>
1

> <Smiles>
N#CC(Br)(Br)C(N)=O

> <SourceCategory>
Chemical Vendors
Legacy Depositors
Curation Efforts
Governmental Organizations
NIH Initiatives
Subscription Services
Journal Publishers
Research and Development

> <Synonym>
2,2-DIBROMO-2-CYANOACETAMIDE
10222-01-2
Dibromocyanoacetamide
Dbnpa
2,2-Dibromo-3-nitrilopropionamide
Acetamide, 2,2-dibromo-2-cyano-
2-Cyano-2,2-dibromoacetamide
XD-7287l Antimicrobial
2,2-Dibromo-2-carbamoylacetonitrile
Caswell No. 287AA
UNII-7N51QGL6MJ
NSC 98283
Dibromocyano acetic acid amide
XD-1603
HSDB 6982
Dibromonitrilopropionamide
XD 7287L
EINECS 233-539-7
EPA Pesticide Chemical Code 101801
BRN 1761192
7N51QGL6MJ
2,2-dibromo-2-cyano-acetamide
Acetamide, 2-cyano-2,2-dibromo-
FR-2220
Q-102771
Mucosin NT
Amerstat 300
Biomate 723
DBNP
Dowicil QK 20
Busan 94
2,2-Dibromo-2-cyanoacetamide (DBNPA)
BE 3S
DSSTox_CID_12361
DSSTox_RID_78926
NCIOpen2_006184
DSSTox_GSID_32361
SCHEMBL23129
3-02-00-01641 (Beilstein Handbook Reference)
KSC174K7F
Acetamide,2-dibromo-2-cyano-
ACMC-20980y
AC1L18D3
DBNPA 7287
X-CIDE 508
Jsp000273
2-Cyano-2,2-dibromo-Acetamide
CHEMBL1878278
DTXSID5032361
CTK0H4572
KS-00000WZN
2,2-Dibromo-3-nitrilopropanamide
UUIVKBHZENILKB-UHFFFAOYSA-N
NSC98283
ZINC1638458
2,2, Dibromo 3-Nitrilopropionamide
2,2-dibromo-3-nitrilopropion amide
Tox21_300089
ANW-14672
MFCD00129791
NSC-98283
SBB008529
2,2-Dibromo-2-cyanoacetamide, 9CI
2, 2-Dibromo-2-carbamoylacetonitrile
2,2-Dibromo-2-cyanoacetamide, 96%
AKOS015833850
2,2-bis(bromanyl)-2-cyano-ethanamide
FCH1326228
LS-3155
MCULE-9977107579
RTR-000577
NCGC00164203-01
NCGC00164203-02
NCGC00253921-01
AJ-28533
AK-32680
AS-12928
CC-06436
CJ-26383
SC-22750
AX8002054
CAS-10222-01-2
DB-027512
TR-000577
D2902
FT-0612090
ST24027244
22D012
A800546
C-14531
I05-0178

> <TPSA>
66.9

> <TotalAidCount>
245

> <TotalFormalCharge>
0

> <XLogP>
0.6

> <database>
PubChem Compound

> <matchingCount>
176

> <primaryID>
25059

> <queryTranslation>
7628[CompoundID] OR 244[CompoundID] OR 25059[CompoundID] OR 7618[CompoundID] OR 7641[CompoundID] OR 5053[CompoundID] OR 637511[CompoundID] OR 7714[CompoundID] OR 7762[CompoundID] OR 25429[CompoundID]
OR 8842[CompoundID] OR 7794[CompoundID] OR 637566[CompoundID] OR 7843[CompoundID] OR 174[CompoundID] OR 7870[CompoundID] OR 86102[CompoundID] OR 7888[CompoundID] OR 7896[CompoundID] OR 1140[CompoundID
] OR 8042[CompoundID] OR 8058[CompoundID] OR 8078[CompoundID] OR 8087[CompoundID] OR 8117[CompoundID] OR 8133[CompoundID] OR 115224[CompoundID] OR 8175[CompoundID] OR 8194[CompoundID] OR 445639[Compou
ndID] OR 4944[CompoundID] OR 8294[CompoundID] OR 93541[CompoundID] OR 8360[CompoundID] OR 8363[CompoundID] OR 656612[CompoundID] OR 125098[CompoundID] OR 3352[CompoundID] OR 3303913[CompoundID] OR 648
05[CompoundID] OR 31200[CompoundID] OR 1712058[CompoundID] OR 31236[CompoundID] OR 31239[CompoundID] OR 31265[CompoundID] OR 31266[CompoundID] OR 31276[CompoundID] OR 6950273[CompoundID] OR 518659[Com
poundID] OR 14896[CompoundID] OR 14798[CompoundID] OR 14829[CompoundID] OR 14830[CompoundID] OR 8635[CompoundID] OR 23266[CompoundID] OR 4284[CompoundID] OR 8693[CompoundID] OR 22311[CompoundID] OR 87
59[CompoundID] OR 8785[CompoundID] OR 2723810[CompoundID] OR 8857[CompoundID] OR 3893[CompoundID] OR 9936739[CompoundID] OR 516892[CompoundID] OR 5430[CompoundID] OR 9017[CompoundID] OR 15433[Compound
ID] OR 107720[CompoundID] OR 9552081[CompoundID] OR 164825[CompoundID] OR 10275455[CompoundID] OR 16666[CompoundID] OR 9839306[CompoundID] OR 5282227[CompoundID] OR 23676745[CompoundID] OR 32881[Compo
undID] OR 91581[CompoundID] OR 39800[CompoundID] OR 33344[CompoundID] OR 15962220[CompoundID] OR 33528[CompoundID] OR 5365075[CompoundID] OR 62829[CompoundID] OR 162381[CompoundID] OR 517202[CompoundI
D] OR 6433353[CompoundID] OR 2730[CompoundID] OR 5372405[CompoundID] OR 36081[CompoundID] OR 3120[CompoundID] OR 3017[CompoundID] OR 2969[CompoundID] OR 18827[CompoundID] OR 19518[CompoundID] OR 19658
[CompoundID] OR 38283[CompoundID] OR 2758[CompoundID] OR 10112[CompoundID] OR 10340[CompoundID] OR 712[CompoundID] OR 5794[CompoundID] OR 3347[CompoundID] OR 104150[CompoundID] OR 2912[CompoundID] OR
2450[CompoundID] OR 40326[CompoundID] OR 40585[CompoundID] OR 517055[CompoundID] OR 10913[CompoundID] OR 108242[CompoundID] OR 62097[CompoundID] OR 41679[CompoundID] OR 54680676[CompoundID] OR 62118[C
ompoundID] OR 753[CompoundID] OR 1030[CompoundID] OR 23673837[CompoundID] OR 54678504[CompoundID] OR 11442[CompoundID] OR 11463[CompoundID] OR 22230[CompoundID] OR 440917[CompoundID] OR 6054[CompoundI
D] OR 43234[CompoundID] OR 22629[CompoundID] OR 3039[CompoundID] OR 2735067[CompoundID] OR 6144[CompoundID] OR 702[CompoundID] OR 284[CompoundID] OR 176[CompoundID] OR 91688[CompoundID] OR 22947[Compo
undID] OR 47445[CompoundID] OR 1711973[CompoundID] OR 243[CompoundID] OR 10342051[CompoundID] OR 5281875[CompoundID] OR 3776[CompoundID] OR 6224[CompoundID] OR 104926[CompoundID] OR 8755[CompoundID] O
R 338[CompoundID] OR 123622[CompoundID] OR 23954[CompoundID] OR 6334[CompoundID] OR 2537[CompoundID] OR 24261[CompoundID] OR 23665760[CompoundID] OR 83975[CompoundID] OR 784[CompoundID] OR 24437[Compo
undID] OR 5360315[CompoundID] OR 311[CompoundID] OR 6549[CompoundID] OR 107689[CompoundID] OR 17100[CompoundID] OR 24976875[CompoundID] OR 6654[CompoundID] OR 71245[CompoundID] OR 6442842[CompoundID]
OR 62334[CompoundID] OR 54698175[CompoundID] OR 6328154[CompoundID] OR 24762[CompoundID] OR 440950[CompoundID] OR 7017[CompoundID] OR 5281873[CompoundID] OR 323[CompoundID] OR 5281167[CompoundID] OR 7
175[CompoundID] OR 7292[CompoundID] OR 6335613[CompoundID] OR 7456[CompoundID] OR 7462[CompoundID]

> <resultIndex>
80

> <resultRange>
1-176

> <textQuery>
7628,244,25059,7618,7641,5053,637511,7714,7762,25429,8842,7794,637566,7843,174,7870,86102,7888,7896,1140,8042,8058,8078,8087,8117,8133,115224,8175,8194,445639,4944,8294,93541,8360,8363,656612,125098,3
352,3303913,64805,31200,1712058,31236,31239,31265,31266,31276,6950273,518659,14896,14798,14829,14830,8635,23266,4284,8693,22311,8759,8785,2723810,8857,3893,9936739,516892,5430,9017,15433,107720,955208
1,164825,10275455,16666,9839306,5282227,23676745,32881,91581,39800,33344,15962220,33528,5365075,62829,162381,517202,6433353,2730,5372405,36081,3120,3017,2969,18827,19518,19658,38283,2758,10112,10340,7
12,5794,3347,104150,2912,2450,40326,40585,517055,10913,108242,62097,41679,54680676,62118,753,1030,23673837,54678504,11442,11463,22230,440917,6054,43234,22629,3039,2735067,6144,702,284,176,91688,22947,
47445,1711973,243,10342051,5281875,3776,6224,104926,8755,338,123622,23954,6334,2537,24261,23665760,83975,784,24437,5360315,311,6549,107689,17100,24976875,6654,71245,6442842,62334,54698175,6328154,2476
2,440950,7017,5281873,323,5281167,7175,7292,6335613,7456,7462

$$$$
24,762
  SciTegic10191915303D

 63 62  0  0  0  0            999 V2000
    8.4120    2.9530    5.0840 O   0  0
    8.4630    2.5450    2.8810 O   0  0
   11.8200    3.1580    6.3030 O   0  0
    7.8440    2.7380    3.9000 C   0  0
    6.3380    2.7460    3.9040 C   0  0
    5.7480    1.9320    2.7540 C   0  0
    4.2190    1.9490    2.7400 C   0  0
    9.8300    2.9320    5.0120 C   0  0
    3.6290    1.1560    1.5740 C   0  0
    2.1000    1.1700    1.5640 C   0  0
    1.5100    0.3770    0.3980 C   0  0
   -0.0180    0.3910    0.3890 C   0  0
   -0.6090   -0.4020   -0.7770 C   0  0
   -2.1370   -0.3890   -0.7870 C   0  0
   -2.7270   -1.1820   -1.9550 C   0  0
   10.4140    3.1860    6.4020 C   0  0
   -4.2560   -1.1660   -1.9630 C   0  0
   -4.8460   -1.9590   -3.1310 C   0  0
   -6.3750   -1.9450   -3.1410 C   0  0
   -6.9650   -2.7380   -4.3070 C   0  0
   -8.4940   -2.7250   -4.3160 C   0  0
   -9.0840   -3.5180   -5.4830 C   0  0
  -10.6130   -3.5180   -5.4830 C   0  0
   12.1740    3.3200    7.1920 H   0  0
    5.9670    2.2870    4.8200 H   0  0
    5.9750    3.7740    3.8750 H   0  0
    6.1450    2.2700    1.7970 H   0  0
    6.1210    0.9060    2.7750 H   0  0
    3.8220    1.5920    3.6900 H   0  0
    3.8460    2.9730    2.7380 H   0  0
   10.1510    3.7050    4.3150 H   0  0
   10.1390    1.9550    4.6370 H   0  0
    4.0230    1.5160    0.6250 H   0  0
    4.0060    0.1330    1.5740 H   0  0
    1.7050    0.8090    2.5140 H   0  0
    1.7250    2.1930    1.5640 H   0  0
    1.9040    0.7380   -0.5510 H   0  0
    1.8870   -0.6460    0.3980 H   0  0
   -0.4140    0.0310    1.3380 H   0  0
   -0.3950    1.4140    0.3890 H   0  0
   -0.2130   -0.0410   -1.7290 H   0  0
   -0.2320   -1.4260   -0.7770 H   0  0
   -2.5310   -0.7480    0.1620 H   0  0
   -2.5140    0.6350   -0.7890 H   0  0
   -2.3320   -0.8200   -2.9040 H   0  0
   -2.3520   -2.2030   -1.9530 H   0  0
   10.1100    2.4020    7.0980 H   0  0
   10.1190    4.1680    6.7720 H   0  0
   -4.6500   -1.5270   -1.0140 H   0  0
   -4.6330   -0.1430   -1.9650 H   0  0
   -4.4510   -1.6000   -4.0800 H   0  0
   -4.4710   -2.9820   -3.1290 H   0  0
   -6.7700   -2.3070   -2.1890 H   0  0
   -6.7520   -0.9220   -3.1410 H   0  0
   -6.5700   -2.3790   -5.2560 H   0  0
   -6.5900   -3.7620   -4.3070 H   0  0
   -8.8890   -3.0840   -3.3670 H   0  0
   -8.8690   -1.7010   -4.3160 H   0  0
   -8.6990   -3.1480   -6.4340 H   0  0
   -8.6990   -4.5370   -5.4880 H   0  0
  -10.9980   -4.0200   -6.3690 H   0  0
  -10.9980   -4.0200   -4.5960 H   0  0
  -10.9980   -2.4980   -5.4830 H   0  0
  1  4  1  0
  1  8  1  0
  2  4  2  0
  3 16  1  0
  4  5  1  0
  5  6  1  0
  6  7  1  0
  7  9  1  0
  8 16  1  0
  9 10  1  0
 10 11  1  0
 11 12  1  0
 12 13  1  0
 13 14  1  0
 14 15  1  0
 15 17  1  0
 17 18  1  0
 18 19  1  0
 19 20  1  0
 20 21  1  0
 21 22  1  0
 22 23  1  0
  3 24  1  0
  5 25  1  0
  5 26  1  0
  6 27  1  0
  6 28  1  0
  7 29  1  0
  7 30  1  0
  8 31  1  0
  8 32  1  0
  9 33  1  0
  9 34  1  0
 10 35  1  0
 10 36  1  0
 11 37  1  0
 11 38  1  0
 12 39  1  0
 12 40  1  0
 13 41  1  0
 13 42  1  0
 14 43  1  0
 14 44  1  0
 15 45  1  0
 15 46  1  0
 16 47  1  0
 16 48  1  0
 17 49  1  0
 17 50  1  0
 18 51  1  0
 18 52  1  0
 19 53  1  0
 19 54  1  0
 20 55  1  0
 20 56  1  0
 21 57  1  0
 21 58  1  0
 22 59  1  0
 22 60  1  0
 23 61  1  0
 23 62  1  0
 23 63  1  0
M  END
> <Name>
24,762

> <OBJECTID>
9223372380455501835

> <ActiveAidCount>
2

> <AtomChiralCount>
0

> <AtomChiralDefCount>
0

> <AtomChiralUndefCount>
0

> <BondChiralCount>
0

> <BondChiralDefCount>
0

> <BondChiralUndefCount>
0

> <CID>
24762

> <CanonicalSmiles>
CCCCCCCCCCCCCCCCCC(=O)OCCO

> <Complexity>
241

> <CovalentUnitCount>
1

> <CreateDate>
2005/03/26 00:00

> <HeavyAtomCount>
23

> <HydrogenBondAcceptorCount>
3

> <HydrogenBondDonorCount>
1

> <IUPACName>
2-hydroxyethyl octadecanoate

> <InChI>
InChI=1S/C20H40O3/c1-2-3-4-5-6-7-8-9-10-11-12-13-14-15-16-17-20(22)23-19-18-21/h21H,2-19H2,1H3

> <InChIKey>
RFVNOJDQRGSOEL-UHFFFAOYSA-N

> <IsomericSmiles>
CCCCCCCCCCCCCCCCCC(=O)OCCO

> <IsotopeAtomCount>
0

> <MeSHHeading>
polyethylene glycol monostearate

> <MeSHTerm>
macrogolstearate 400
MYRJ 45
cremophor A
cremophor S9
PEG-stearate
MYRJ 59
stearox-6
polyethylene glycol monostearate
polyethyleneglycol stearate

> <MolecularFormula>
C20H40O3

> <MolecularWeight>
328.5

> <RotatableBondCount>
19

> <Smiles>
O(CCO)C(CCCCCCCCCCCCCCCCC)=O

> <SourceCategory>
Legacy Depositors
Chemical Vendors
Research and Development
Curation Efforts
Governmental Organizations
NIH Initiatives
Subscription Services
Journal Publishers

> <Synonym>
2-Hydroxyethyl stearate
Glycol stearate
Cremophor A
Ethylene glycol monostearate
2-Hydroxyethyl octadecanoate
Polyethylene glycol monostearate
Cerasynt M
Clearate G
Cerasynt MN
Cithrol PS
Polyoxyl 40 stearate
9004-99-3
Lactine
Polystate
Cithrol 10MS
Myrj
Cerasynt 660
Polystate B
Prodhybase P
Akyporox S 100
PEG stearate
Lamacit CA
Soromin-SG
Emerest 2640
Stearoks 6
Stearoxa-6
Nikkol MYS
Stearox 6
Pegosperse S 9
Emanon 3113
Glycol monostearate
Myrj 45
Stenol 8
Arosurf 1855E40
Emcol H 35-A
PEG-8 Stearate
Monthybase
Monthyle
Parastarin
PEG-40 stearate
Ivorit
Prodhybase 4000
Sedetol
Stearoks 920
Nikkol MYS 4
Nonion S 2
Nonion S 4
Tego-stearate
Nissan Nonion S-2
Stearox 920
Lipal 15S
Prodhybase ethyl
Lipo-Peg 4-S
Nikkol MYS 40
Nikkol MYS 45
Nikkol MYS-25
Nonex 28
Nonex 29
Nonex 36
Nonex 53
Nonex 54
Nonex 63
PEG-150 stearate
Prodhybas N
Trydet SA 40
Empilan CP-100
Empilan CQ-100
Nonion S 15
Polyoxyl 50 stearate
Clindrol SEG
Nissan Nonion S 15
OCTADECANOIC ACID, 2-HYDROXYETHYL ESTER
Myrj 52S
Emunon 3115
Kessco X-211
Myrj 51
Myrj 53
Ethofat 60/15
Ethofat 60/20
Ethofat 60/25
Perphinol 45/100
Trydet SA series
Ethoxylated stearic acid
Lipal 400-S
Polyoxyethylene-8-monostearate
Polyethylene oxide monostearate
Ionet MS-1000
Lipo EGMS
PEG-10 Stearate
Polyoxyl 8 stearate
Slovasol MKS 16
Emery 15393
Poly(oxyethylene) stearate
Polyoxyethylene(8)stearate
Usaf ke-9
Emulphor VT-650
Polyethylene glycol stearate
Polyoxyethylene 50 stearate
Usaf ke-12
Usaf ke-14
Emerest 2350
Empilan 2848
Myrj solution
Polyethylene glycol 8 monostearate
Carbowax 1000 monostearate
Carbowax 4000 monostearate
MYRJ 49
MYRJ 52
Emanon 3199
Magi 45
PEG 100MS
PEG 600MS
Ethylene glycol stearate
Stabilisant delta-118
Poly(oxyethylene) stearic acid ester
Tegin G
Polyethylene glycol monostearate #200
Polyethylene glycol monostearate #400
Polyethylene oxide stearate
Polyoxyethylene monostearate
Polyethylene glycol (100) monostearate
Polyethylene glycol monostearate #1000
Polyethylene glycol monostearate #6000
PMS No. 1
PMS No. 2
Glycol, polyethylene monostearate #6000
Glycols, polyethylene, monostearate
STEARIC ACID, 2-HYDROXYETHYL ESTER
Ethylene glycol, monostearate
Polyoxyethylene (8) stearate
Polyethyleneglycols monstearate
Myrj 59
Polyethyleneglycols monostearate
LX 3
MYS 40
MYS 45
PEG 1000MS
PEG 42
Macrogol stearate 2000
Polyoxyethylate (9) stearic acid
Polyoxyethylene stearate (mol. wt. 600-2000)
Polyoxyethylene-(40)-monostearate
Polyoxyethylene 40 stearate
USAF KE-11
Glycol stearate SE
Glycol polyethylene monostearate #200
Poly(oxyethylene) monostearate
POLYOXYETHYLENE STEARATE
X-489-R
Ethylene glycol monostearate SE
Polyoxyethylene 40 monostearate
Glycol monostearate SE
HSDB 1927
Macrogol ester (INN)
Polyoxyl 8 stearate [USAN:BAN]
Stearic acid, monoester with ethylene glycol
Crill 20,21,22,23
S 541
NSC 31811
Polyethylene glycol monostearate #40
S 1004
S 1012
S 1016
S 1042
S 1054
S 1116
Stearic acid, monoester with polyethylene glycol
Myrj 52 (TN)
Glycol, polyethylene monostearate #200
Polyoxyl 8 stearate (USAN)
40S
S 151
UNII-0324G66D0E
RFVNOJDQRGSOEL-UHFFFAOYSA-N
NSC31811
Poly(oxy-1,2-ethanediyl), .alpha.-(1-oxooctadecyl)-.omega.-hydroxy-
EINECS 203-886-9
0324G66D0E
60S
BRN 1794033
NCGC00188435-01
Polyoxyl 40 stearate [USAN:BAN:JAN]
17-Hydroxy-3,6,9,12,15-pentaoxaheptadec-1-yl octadecanoate
alpha-(1-Oxooctadecyl)-omega-hydroxypoly(oxy-1,2-ethanediyl)
Poly(oxy-1,2-ethanediyl), alpha-1-(oxooctadecyl)-omega-hydroxy-
Polyoxyl 8 stearate [USAN]
W-109413
Poly(oxy-1,2-ethanediyl), alpha-(1-oxooctadecyl)-omega-hydroxy-
Poly(oxy-1,2-ethanediyl), alpha-hydro-omega-hydroxy-, octadecanoate
26-Hydroxy-3,6,9,12,15,18,21,24-octaoxahexacos-1-yl octadecanoate
Octadecanoic acid, 17-hydroxy-3,6,9,12,15-pentaoxaheptadec-1-yl ester
41-Hydroxy-3,6,9,12,15,18,21,24,-27,30,33,36,39-tridecaoxahentetr- acont-1-yl octadecanoate
Octadecanoic acid, 41-hydroxy-3,6,9,12,15,18,21,24,27,30,33,36,39-tridecaoxahentetra- cont-1-yl ester
UNII-1X2OAT3BFK
UNII-J3W1NQQ2BZ
UNII-0V73PIX5YC
UNII-33GX5WQC0M
UNII-7BSG7DF10Q
UNII-9KU38O8CEK
UNII-D3AHD468TV
UNII-RCE8XV9D25
UNII-WZU67V0H4I
UNII-1J2956FWUB
UNII-2P9L47VI5E
UNII-4L5ODS320S
UNII-8LQC57C6B0
UNII-DX337AM81S
UNII-ECU18C66Q7
UNII-NBX892EA57
UNII-OT38R0N74H
UNII-SQM1449XO7
UNII-VCX261B12R
Macrogol ester
UNII-1U8KB35S20
UNII-776CJK5X56
UNII-YD01N1999R
Schercemol EGMS
UNII-3954DT14A6
UNII-569T0R267J
UNII-5WD387V180
Alkamuls SEG
Ablunol EGMS
PEG 100
Alkamuls EGMS/C
PEG40 stearate
UNII-5I60X40576
Pegosperse 50 MS
Glycols, monostearate
Polyoxyl 40 stearate [USAN:JAN:NF]
PEG-200 Monostearate
PEG-300 Monostearate
PEG-400 Monostearate
PEG-600 Monostearate
Cerasynt M (Salt/Mix)
AC1L2NNL
ethyleneglycol monostearate
Cerasynt MN (Salt/Mix)
PEG-1000 Monostearate
PEG-2000 Monostearate
PEG-4000 Monostearate
polyoxyethylene 8 stearate
1X2OAT3BFK
DSSTox_CID_6881
J3W1NQQ2BZ
Stabilisant .delta.-118
MACROGOL 8 STEARATE
0V73PIX5YC
33GX5WQC0M
7BSG7DF10Q
9KU38O8CEK
D3AHD468TV
DSSTox_RID_78236
RCE8XV9D25
WZU67V0H4I
DSSTox_GSID_26881
MACROGOL ESTER 400
SCHEMBL10412
MACROGOL 40 STEARATE
Crill 20,22,23
UNII-7TB32G765E
MACROGOL ESTER 2000
Polyethylene glycol monosterate
1J2956FWUB
2P9L47VI5E
4L5ODS320S
8LQC57C6B0
DX337AM81S
ECU18C66Q7
NBX892EA57
OT38R0N74H
SQM1449XO7
VCX261B12R
CHEMBL2355383
DTXSID5026881
CHEBI:32027
1U8KB35S20
776CJK5X56
7TB32G765E
YD01N1999R
Polyoxyl 40 stearate (JP15/NF)
Polyoxyl 40 stearate (JP17/NF)
Crill 20,21,22, 23
Tox21_113036
NSC-31811
ZINC56897528
AKOS015843173
3954DT14A6
569T0R267J
5WD387V180
86418-55-5
AN-19480
AN-22669
CAS-111-60-4
LS-72942
SC-75766
LS-146678
5I60X40576
FT-0626337
S-151
4310-EP2270004A1
4310-EP2272827A1
4310-EP2272832A1
4310-EP2275413A1
4310-EP2277881A1
4310-EP2295503A1
4310-EP2298735A1
4310-EP2301544A1
4310-EP2305647A1
4310-EP2305672A1
4310-EP2380568A1
D01542
78973-EP2272832A1
78973-EP2277898A2
78973-EP2289893A1
78973-EP2292592A1
78973-EP2295411A1
78973-EP2305695A2
78973-EP2305696A2
78973-EP2305697A2
78973-EP2305698A2
78973-EP2305808A1
L001305
Poly(oxy-1, .alpha.-(1-oxooctadecyl)-.omega.-hydroxy-
Polyoxyethylene Monostearate ester, POE(14) Monostearate
Polyoxyethylene Monostearate ester, POE(23) Monostearate
Polyoxyethylene Monostearate ester, POE(46) Monostearate
Polyoxyethylene Monostearate ester, POE(7) Monostearate
Polyoxyethylene Monostearate ester, POE(9) Monostearate
Polyoxyethylene Monostearate ester, POE(90) Monostearate
Poly(oxy-1, .alpha.-hydro-.omega.-hydroxy-, octadecanoate
UNII-6YLY96TQL6 component RFVNOJDQRGSOEL-UHFFFAOYSA-N
UNII-YHX98F77PB component RFVNOJDQRGSOEL-UHFFFAOYSA-N
Poly(oxy-1, 2-ethanediyl), .alpha.-hydro-.omega.-hydroxy-, octadecanoate

> <TPSA>
46.5

> <TotalAidCount>
76

> <TotalFormalCharge>
0

> <XLogP>
7.8

> <database>
PubChem Compound

> <matchingCount>
176

> <primaryID>
24762

> <queryTranslation>
7628[CompoundID] OR 244[CompoundID] OR 25059[CompoundID] OR 7618[CompoundID] OR 7641[CompoundID] OR 5053[CompoundID] OR 637511[CompoundID] OR 7714[CompoundID] OR 7762[CompoundID] OR 25429[CompoundID]
OR 8842[CompoundID] OR 7794[CompoundID] OR 637566[CompoundID] OR 7843[CompoundID] OR 174[CompoundID] OR 7870[CompoundID] OR 86102[CompoundID] OR 7888[CompoundID] OR 7896[CompoundID] OR 1140[CompoundID
] OR 8042[CompoundID] OR 8058[CompoundID] OR 8078[CompoundID] OR 8087[CompoundID] OR 8117[CompoundID] OR 8133[CompoundID] OR 115224[CompoundID] OR 8175[CompoundID] OR 8194[CompoundID] OR 445639[Compou
ndID] OR 4944[CompoundID] OR 8294[CompoundID] OR 93541[CompoundID] OR 8360[CompoundID] OR 8363[CompoundID] OR 656612[CompoundID] OR 125098[CompoundID] OR 3352[CompoundID] OR 3303913[CompoundID] OR 648
05[CompoundID] OR 31200[CompoundID] OR 1712058[CompoundID] OR 31236[CompoundID] OR 31239[CompoundID] OR 31265[CompoundID] OR 31266[CompoundID] OR 31276[CompoundID] OR 6950273[CompoundID] OR 518659[Com
poundID] OR 14896[CompoundID] OR 14798[CompoundID] OR 14829[CompoundID] OR 14830[CompoundID] OR 8635[CompoundID] OR 23266[CompoundID] OR 4284[CompoundID] OR 8693[CompoundID] OR 22311[CompoundID] OR 87
59[CompoundID] OR 8785[CompoundID] OR 2723810[CompoundID] OR 8857[CompoundID] OR 3893[CompoundID] OR 9936739[CompoundID] OR 516892[CompoundID] OR 5430[CompoundID] OR 9017[CompoundID] OR 15433[Compound
ID] OR 107720[CompoundID] OR 9552081[CompoundID] OR 164825[CompoundID] OR 10275455[CompoundID] OR 16666[CompoundID] OR 9839306[CompoundID] OR 5282227[CompoundID] OR 23676745[CompoundID] OR 32881[Compo
undID] OR 91581[CompoundID] OR 39800[CompoundID] OR 33344[CompoundID] OR 15962220[CompoundID] OR 33528[CompoundID] OR 5365075[CompoundID] OR 62829[CompoundID] OR 162381[CompoundID] OR 517202[CompoundI
D] OR 6433353[CompoundID] OR 2730[CompoundID] OR 5372405[CompoundID] OR 36081[CompoundID] OR 3120[CompoundID] OR 3017[CompoundID] OR 2969[CompoundID] OR 18827[CompoundID] OR 19518[CompoundID] OR 19658
[CompoundID] OR 38283[CompoundID] OR 2758[CompoundID] OR 10112[CompoundID] OR 10340[CompoundID] OR 712[CompoundID] OR 5794[CompoundID] OR 3347[CompoundID] OR 104150[CompoundID] OR 2912[CompoundID] OR
2450[CompoundID] OR 40326[CompoundID] OR 40585[CompoundID] OR 517055[CompoundID] OR 10913[CompoundID] OR 108242[CompoundID] OR 62097[CompoundID] OR 41679[CompoundID] OR 54680676[CompoundID] OR 62118[C
ompoundID] OR 753[CompoundID] OR 1030[CompoundID] OR 23673837[CompoundID] OR 54678504[CompoundID] OR 11442[CompoundID] OR 11463[CompoundID] OR 22230[CompoundID] OR 440917[CompoundID] OR 6054[CompoundI
D] OR 43234[CompoundID] OR 22629[CompoundID] OR 3039[CompoundID] OR 2735067[CompoundID] OR 6144[CompoundID] OR 702[CompoundID] OR 284[CompoundID] OR 176[CompoundID] OR 91688[CompoundID] OR 22947[Compo
undID] OR 47445[CompoundID] OR 1711973[CompoundID] OR 243[CompoundID] OR 10342051[CompoundID] OR 5281875[CompoundID] OR 3776[CompoundID] OR 6224[CompoundID] OR 104926[CompoundID] OR 8755[CompoundID] O
R 338[CompoundID] OR 123622[CompoundID] OR 23954[CompoundID] OR 6334[CompoundID] OR 2537[CompoundID] OR 24261[CompoundID] OR 23665760[CompoundID] OR 83975[CompoundID] OR 784[CompoundID] OR 24437[Compo
undID] OR 5360315[CompoundID] OR 311[CompoundID] OR 6549[CompoundID] OR 107689[CompoundID] OR 17100[CompoundID] OR 24976875[CompoundID] OR 6654[CompoundID] OR 71245[CompoundID] OR 6442842[CompoundID]
OR 62334[CompoundID] OR 54698175[CompoundID] OR 6328154[CompoundID] OR 24762[CompoundID] OR 440950[CompoundID] OR 7017[CompoundID] OR 5281873[CompoundID] OR 323[CompoundID] OR 5281167[CompoundID] OR 7
175[CompoundID] OR 7292[CompoundID] OR 6335613[CompoundID] OR 7456[CompoundID] OR 7462[CompoundID]

> <resultIndex>
81

> <resultRange>
1-176

> <textQuery>
7628,244,25059,7618,7641,5053,637511,7714,7762,25429,8842,7794,637566,7843,174,7870,86102,7888,7896,1140,8042,8058,8078,8087,8117,8133,115224,8175,8194,445639,4944,8294,93541,8360,8363,656612,125098,3
352,3303913,64805,31200,1712058,31236,31239,31265,31266,31276,6950273,518659,14896,14798,14829,14830,8635,23266,4284,8693,22311,8759,8785,2723810,8857,3893,9936739,516892,5430,9017,15433,107720,955208
1,164825,10275455,16666,9839306,5282227,23676745,32881,91581,39800,33344,15962220,33528,5365075,62829,162381,517202,6433353,2730,5372405,36081,3120,3017,2969,18827,19518,19658,38283,2758,10112,10340,7
12,5794,3347,104150,2912,2450,40326,40585,517055,10913,108242,62097,41679,54680676,62118,753,1030,23673837,54678504,11442,11463,22230,440917,6054,43234,22629,3039,2735067,6144,702,284,176,91688,22947,
47445,1711973,243,10342051,5281875,3776,6224,104926,8755,338,123622,23954,6334,2537,24261,23665760,83975,784,24437,5360315,311,6549,107689,17100,24976875,6654,71245,6442842,62334,54698175,6328154,2476
2,440950,7017,5281873,323,5281167,7175,7292,6335613,7456,7462

$$$$
24,437
  SciTegic10191915303D

  4  3  0  0  0  0            999 V2000
   -0.1220   -0.1960   -0.3230 S   0  0
   -0.6050    1.2610   -0.3230 O   0  5
   -0.6050   -0.8690    0.9690 O   0  5
    1.3310   -0.1960   -0.3230 O   0  0
  1  2  1  0
  1  3  1  0
  1  4  2  0
M  CHG  2   2  -1   3  -1
M  END
> <Name>
24,437

> <OBJECTID>
9223372384750469131

> <ActiveAidCount>
1

> <AtomChiralCount>
0

> <AtomChiralDefCount>
0

> <AtomChiralUndefCount>
0

> <BondChiralCount>
0

> <BondChiralDefCount>
0

> <BondChiralUndefCount>
0

> <CID>
24437

> <CanonicalSmiles>
[O-]S(=O)[O-].[Na+].[Na+]

> <Complexity>
18.8

> <CovalentUnitCount>
3

> <CreateDate>
2005/08/08 00:00

> <HeavyAtomCount>
6

> <HydrogenBondAcceptorCount>
4

> <HydrogenBondDonorCount>
0

> <IUPACName>
disodium;sulfite

> <InChI>
InChI=1S/2Na.H2O3S/c;;1-4(2)3/h;;(H2,1,2,3)/q2*+1;/p-2

> <InChIKey>
GEHJYWRUCIMESM-UHFFFAOYSA-L

> <IsomericSmiles>
[O-]S(=O)[O-].[Na+].[Na+]

> <IsotopeAtomCount>
0

> <MeSHHeading>
sodium sulfite

> <MeSHTerm>
sodium sulfite, 35S-labeled cpd
sulfurous acid, sodium salt
sodium sulfite, heptahydrate
sodium sulfite
sodium sulphite

> <MolecularFormula>
Na2O3S

> <MolecularWeight>
126.05

> <RotatableBondCount>
0

> <Smiles>
S(=O)([O-])[O-].[Na+].[Na+]

> <SourceCategory>
Legacy Depositors
Chemical Vendors
Research and Development
Curation Efforts
Governmental Organizations
Subscription Services
Journal Publishers

> <Synonym>
SODIUM SULFITE
7757-83-7
Sodium sulphite
Disodium sulfite
Sodium sulfite anhydrous
Sulfurous acid, disodium salt
Sulftech
Natrium sulfurosum
sodiumsulfite
Natriumsulfid
Natriumsulfit
Natrii sulphis
Anhydrous sodium sulfite
Natriumsulfid [German]
Natriumsulfit [German]
S-WAT
Exsiccated sodium sulfite
UNII-VTK01UQK3G
Sodium sulfite, exsiccated
Sodium sulfite (Na2SO3)
Sulfurous acid, sodium salt (1:2)
Disodium sulfite (Na2SO3)
MFCD00003503
CCRIS 1429
Sodium sulfite [NF]
HSDB 5043
Sodium sulfite solution
Na2SO3
Sodium sulfite (2:1)
EINECS 231-821-4
VTK01UQK3G
CHEBI:86477
Sodium sulfite (NF)
Sodium sulfite, 98%, for biochemistry
Sodium sulfite, 97%, extra pure, anhydrous
Sodium sulfite, 98+%, ACS reagent, anhydrous
Sodium sulfite, 98.5%, for analysis, anhydrous
sodium-sulfite
Dried sodium sulfite
ACMC-20ajnl
AC1LANMF
Na2O3S
AC1L2NFQ
Hypo clear (photography)
Sodium sulfite, anhydrous
EC 231-821-4
KSC378C1H
Dried sodium sulfite (JP17)
AC1Q22U8
CHEMBL1945334
DTXSID2044260
CTK2H8113
KS-00000WGD
Sodium sulfite ACS reagent grade
GEHJYWRUCIMESM-UHFFFAOYSA-L
AKOS028109676
LS-2431
RL04977
RTR-033682
AN-21850
BP-21395
E221
R413
SC-77393
TR-033682
FT-0645146
D09002

> <TPSA>
82.4

> <TotalAidCount>
3

> <TotalFormalCharge>
0

> <database>
PubChem Compound

> <matchingCount>
176

> <primaryID>
24437

> <queryTranslation>
7628[CompoundID] OR 244[CompoundID] OR 25059[CompoundID] OR 7618[CompoundID] OR 7641[CompoundID] OR 5053[CompoundID] OR 637511[CompoundID] OR 7714[CompoundID] OR 7762[CompoundID] OR 25429[CompoundID]
OR 8842[CompoundID] OR 7794[CompoundID] OR 637566[CompoundID] OR 7843[CompoundID] OR 174[CompoundID] OR 7870[CompoundID] OR 86102[CompoundID] OR 7888[CompoundID] OR 7896[CompoundID] OR 1140[CompoundID
] OR 8042[CompoundID] OR 8058[CompoundID] OR 8078[CompoundID] OR 8087[CompoundID] OR 8117[CompoundID] OR 8133[CompoundID] OR 115224[CompoundID] OR 8175[CompoundID] OR 8194[CompoundID] OR 445639[Compou
ndID] OR 4944[CompoundID] OR 8294[CompoundID] OR 93541[CompoundID] OR 8360[CompoundID] OR 8363[CompoundID] OR 656612[CompoundID] OR 125098[CompoundID] OR 3352[CompoundID] OR 3303913[CompoundID] OR 648
05[CompoundID] OR 31200[CompoundID] OR 1712058[CompoundID] OR 31236[CompoundID] OR 31239[CompoundID] OR 31265[CompoundID] OR 31266[CompoundID] OR 31276[CompoundID] OR 6950273[CompoundID] OR 518659[Com
poundID] OR 14896[CompoundID] OR 14798[CompoundID] OR 14829[CompoundID] OR 14830[CompoundID] OR 8635[CompoundID] OR 23266[CompoundID] OR 4284[CompoundID] OR 8693[CompoundID] OR 22311[CompoundID] OR 87
59[CompoundID] OR 8785[CompoundID] OR 2723810[CompoundID] OR 8857[CompoundID] OR 3893[CompoundID] OR 9936739[CompoundID] OR 516892[CompoundID] OR 5430[CompoundID] OR 9017[CompoundID] OR 15433[Compound
ID] OR 107720[CompoundID] OR 9552081[CompoundID] OR 164825[CompoundID] OR 10275455[CompoundID] OR 16666[CompoundID] OR 9839306[CompoundID] OR 5282227[CompoundID] OR 23676745[CompoundID] OR 32881[Compo
undID] OR 91581[CompoundID] OR 39800[CompoundID] OR 33344[CompoundID] OR 15962220[CompoundID] OR 33528[CompoundID] OR 5365075[CompoundID] OR 62829[CompoundID] OR 162381[CompoundID] OR 517202[CompoundI
D] OR 6433353[CompoundID] OR 2730[CompoundID] OR 5372405[CompoundID] OR 36081[CompoundID] OR 3120[CompoundID] OR 3017[CompoundID] OR 2969[CompoundID] OR 18827[CompoundID] OR 19518[CompoundID] OR 19658
[CompoundID] OR 38283[CompoundID] OR 2758[CompoundID] OR 10112[CompoundID] OR 10340[CompoundID] OR 712[CompoundID] OR 5794[CompoundID] OR 3347[CompoundID] OR 104150[CompoundID] OR 2912[CompoundID] OR
2450[CompoundID] OR 40326[CompoundID] OR 40585[CompoundID] OR 517055[CompoundID] OR 10913[CompoundID] OR 108242[CompoundID] OR 62097[CompoundID] OR 41679[CompoundID] OR 54680676[CompoundID] OR 62118[C
ompoundID] OR 753[CompoundID] OR 1030[CompoundID] OR 23673837[CompoundID] OR 54678504[CompoundID] OR 11442[CompoundID] OR 11463[CompoundID] OR 22230[CompoundID] OR 440917[CompoundID] OR 6054[CompoundI
D] OR 43234[CompoundID] OR 22629[CompoundID] OR 3039[CompoundID] OR 2735067[CompoundID] OR 6144[CompoundID] OR 702[CompoundID] OR 284[CompoundID] OR 176[CompoundID] OR 91688[CompoundID] OR 22947[Compo
undID] OR 47445[CompoundID] OR 1711973[CompoundID] OR 243[CompoundID] OR 10342051[CompoundID] OR 5281875[CompoundID] OR 3776[CompoundID] OR 6224[CompoundID] OR 104926[CompoundID] OR 8755[CompoundID] O
R 338[CompoundID] OR 123622[CompoundID] OR 23954[CompoundID] OR 6334[CompoundID] OR 2537[CompoundID] OR 24261[CompoundID] OR 23665760[CompoundID] OR 83975[CompoundID] OR 784[CompoundID] OR 24437[Compo
undID] OR 5360315[CompoundID] OR 311[CompoundID] OR 6549[CompoundID] OR 107689[CompoundID] OR 17100[CompoundID] OR 24976875[CompoundID] OR 6654[CompoundID] OR 71245[CompoundID] OR 6442842[CompoundID]
OR 62334[CompoundID] OR 54698175[CompoundID] OR 6328154[CompoundID] OR 24762[CompoundID] OR 440950[CompoundID] OR 7017[CompoundID] OR 5281873[CompoundID] OR 323[CompoundID] OR 5281167[CompoundID] OR 7
175[CompoundID] OR 7292[CompoundID] OR 6335613[CompoundID] OR 7456[CompoundID] OR 7462[CompoundID]

> <resultIndex>
82

> <resultRange>
1-176

> <textQuery>
7628,244,25059,7618,7641,5053,637511,7714,7762,25429,8842,7794,637566,7843,174,7870,86102,7888,7896,1140,8042,8058,8078,8087,8117,8133,115224,8175,8194,445639,4944,8294,93541,8360,8363,656612,125098,3
352,3303913,64805,31200,1712058,31236,31239,31265,31266,31276,6950273,518659,14896,14798,14829,14830,8635,23266,4284,8693,22311,8759,8785,2723810,8857,3893,9936739,516892,5430,9017,15433,107720,955208
1,164825,10275455,16666,9839306,5282227,23676745,32881,91581,39800,33344,15962220,33528,5365075,62829,162381,517202,6433353,2730,5372405,36081,3120,3017,2969,18827,19518,19658,38283,2758,10112,10340,7
12,5794,3347,104150,2912,2450,40326,40585,517055,10913,108242,62097,41679,54680676,62118,753,1030,23673837,54678504,11442,11463,22230,440917,6054,43234,22629,3039,2735067,6144,702,284,176,91688,22947,
47445,1711973,243,10342051,5281875,3776,6224,104926,8755,338,123622,23954,6334,2537,24261,23665760,83975,784,24437,5360315,311,6549,107689,17100,24976875,6654,71245,6442842,62334,54698175,6328154,2476
2,440950,7017,5281873,323,5281167,7175,7292,6335613,7456,7462

$$$$
24,261
  SciTegic10191915303D

  3  2  0  0  0  0            999 V2000
   -0.3240   -0.4590    0.0000 Si  0  0
    1.1360   -0.4590    0.0000 O   0  0
   -0.8110    0.9180    0.0000 O   0  0
  1  2  2  0
  1  3  2  0
M  END
> <Name>
24,261

> <OBJECTID>
9223372389045436427

> <ActiveAidCount>
2

> <AtomChiralCount>
0

> <AtomChiralDefCount>
0

> <AtomChiralUndefCount>
0

> <BondChiralCount>
0

> <BondChiralDefCount>
0

> <BondChiralUndefCount>
0

> <CID>
24261

> <CanonicalSmiles>
O=[Si]=O

> <Complexity>
18.3

> <CovalentUnitCount>
1

> <CreateDate>
2005/03/27 00:00

> <HeavyAtomCount>
3

> <HydrogenBondAcceptorCount>
2

> <HydrogenBondDonorCount>
0

> <IUPACName>
dioxosilane

> <InChI>
InChI=1S/O2Si/c1-3-2

> <InChIKey>
VYPSYNLAJGMNEJ-UHFFFAOYSA-N

> <IsomericSmiles>
O=[Si]=O

> <IsotopeAtomCount>
0

> <MeSHHeading>
Silicon Dioxide

> <MeSHTerm>
Aerosil
Dioxide, Silicon
Silicon Dioxide
380, Aerosil
Quso G32
G32, Quso
Aerosil 380
Quso G-32
Silica
Cristobalite
Quso G 32
Tridymite

> <MolecularFormula>
O2Si

> <MolecularWeight>
60.084

> <RotatableBondCount>
0

> <Smiles>
[Si](=O)=O

> <SourceCategory>
Legacy Depositors
Chemical Vendors
Research and Development
Curation Efforts
Governmental Organizations
Subscription Services
Journal Publishers
NIH Initiatives

> <Synonym>
Silica
SILICON DIOXIDE
Quartz
Cristobalite
Dioxosilane
7631-86-9
Diatomaceous earth
Tridymite
Silicic anhydride
Aerosil
Sand
Infusorial earth
KIESELGUHR
Dicalite
Wessalon
Glass
Ludox
Nyacol
Amorphous silica
Zorbax sil
14808-60-7
Crystalline silica
Silica, amorphous
112945-52-5
Diatomaceous silica
Cab-O-sil
Christensenite
Crystoballite
Silicondioxide
Silicon(IV) oxide
QUARTZ (SIO2)
61790-53-2
Sillikolloid
Acticel
Aerosil 380
Amethyst
Aquafil
Carplex
Cataloid
Chalcedony
Crysvarl
Extrusil
Flintshot
Nalcoag
Novaculite
Porasil
Santocel
Silikil
Silikill
Siloxid
Sipernat
Superfloss
Vulkasil
Cherts
Neosil
Neosyl
Snowit
Aerosil-degussa
Agate
Flint
Imsil
Metacristobalite
Siliceous earth
Zipax
Opal
alpha-Quartz
Cab-o-sil M-5
Cristobalite (SiO2)
Fossil flour
Fused silica
Quartz dust
Quartz glass
Quartz sand
Quartz silica
Rock crystal
Rose quartz
Silica dust
White carbon
Silica particles
Silicone dioxide
Tiger-eye
112926-00-8
Vulkasil S
Celite superfloss
Cristobalite dust
SILICA, VITREOUS
Snowtex O
Silver bond B
Corasil II
alpha-Cristobalite
alpha-Crystobalite
Cab-O-sperse
Calcined diatomite
Tokusil TPLM
Dri-Die
Gold bond R
Cabosil st-1
Manosil vn 3
Sil-Co-Sil
Ultrasil VH 3
Ultrasil VN 3
Aerosil bs-50
Carplex 30
Carplex 80
Snowtex 30
Tridymite 118
Zeofree 80
Aerosil K 7
Cab-O-grip II
Cabosil N 5
Min-U-Sil
Pigment White 27
Siderite (SiO2)
Syton 2X
Tridimite [French]
Amorphous silica gel
HI-Sil
Positive sol 232
Aerogel 200
Aerosil 300
Ludox hs 40
Silanox 101
Silica (SiO2)
Vitasil 220
Amorphous silica dust
Positive sol 130M
Nyacol 830
Aerosil A 300
Aerosil E 300
Aerosil M-300
Sibelite M 3000
Sibelite M 4000
Sibelite M 6000
Quazo puro [Italian]
Caswell No. 734A
Nalfloc N 1050
Quso 51
Sicron F 300
Sikron F 100
Siliziumdioxid
Diatomite
Nyacol 1430
Silica, amorphous fused
Dimethyl siloxanes and silicones
60676-86-0
Silica slurry
Tridymite dust
W 12 (Filler)
Colloidal silicon dioxide
MIN-U-sil alpha quartz
Quso G 30
Dri-Die insecticide 67
Nalco 1050
Silica, amorphous, fumed
Siliceous earth, purified
Pyrogenic colloidal silica
Synthetic amorphous silica
UNII-ETJ7Z6XBU4
Hydrophobic silica 2482
Calcined diatomaceous earth
Crystallized silicon dioxide
Silicon dioxide (amorphous)
14464-46-1
Diatomaceous earth, calcined
Kieselsaeureanhydrid
Silicon oxide, di- (sand)
Cristobalite asbestos
Sg-67
Silica, amorphous, fumed, cryst.-free
Fumed silica, crystalline-free
CCRIS 2475
CCRIS 3699
DQ12
Fumed synthetic amorphous silica
Silica, crystalline - tridymite
91053-39-3
CHEBI:30563
SiO2
Silicon dioxide, fumed
Synthetic amorphous silica, fumed
WGL 300
D & D
SF 35
(SiO2)n
Silicon dioxide, chemically prepared
EINECS 231-545-4
EINECS 238-455-4
EINECS 238-878-4
EINECS 239-487-1
43-63C
HK 400
MFCD00011232
TGL 16319
ETJ7Z6XBU4
Silica, crystalline quartz
15468-32-3
ENT 25,550
EPA Pesticide Chemical Code 072605
Silica 2482, hydrophobic
CI 7811
Silica, crystalline, quartz
Silica, crystalline: quartz
[SiO2]
Silica, crystalline - fused
CAB-O-SIL N-70TS
Silica, crystalline tridymite
Silica, crystalline - quartz
W 12
Quartz [Silica, crystalline]
Silica flour (powdered crystalline silica)
Silica, crystalline: tridymite
Silicon dioxide, amorphous gel
AI3-25549
N1030
Silica gel desiccant, indicating
Tridymite [Silica, crystalline]
U 333
W 006
Sand, Ottawa
Silica, crystalline: cristobalite
Silica, crystalline - cristobalite
Cristobalite [Silica, crystalline]
Sand, Sea
MP Silica DCC
Amorphous silica: Pyrogenic (fumed)
silica gel desiccant
MFCD00217788
MP SILITECH
MP SILICA
MP SILICA, Active
MP SILICA SCC
Silica gel, large pore
Celite
MP SILICA F-TLC
MP SILICA G-TLC
Silica vitreous
MP SILICA GF-TLC
Chromosorb P
MP SILICA BioRP C8
MP SILICA BioRP C18
Silicon(IV) oxide, amorphous
Tridymite (SiO2)
Glass wool, for laboratory use
Sand, pure, 40-100 mesh
Silicates (<1% crystalline silica):Graphite, natural
Siliceous earth, purified (NF)
Siliceous earth, purified [NF]
Spectrosil
Accusand
Coesite
Fuselex
Nalcast
Optocil
Quartzine
Quarzsand
Rancosil
Suprasil
Tridimite
Siltex
Vitreous quartz
Vitreous silica
beta-Quartz
colloidal silica
Fused quartz
Quartz-beta
Silica glass
Amorphous quartz
Quazo puro
Vitrified silica
MFCD00163736
Sand, for analysis, 40-100 mesh
Silica gel, spherical, 60 angstroms
Silica, fused
Suprasil W
Vitreosil IR
Borsil P
Silica gel, spherical, 100 angstroms
Silica gel, spherical, 300 angstroms
Silane, dioxo-
Optocil (quartz)
CP-SilicaPLOT
68909-20-6
Quarzsand [German]
S-Col
Admafine SO 25H
Admafine SO 25R
Admafine SO 32H
Admafine SO-C 2
Admafine SO-C 3
Keatite (SiO2)
Stishovite (SiO2)
ED-C (silica)
Fuselex ZA 30
As 1 (silica)
Agate (SiO2)
Celite 545
FB 5 (silica)
Fuselex RD 120
Corning 7940
Microcrystalline quartz
Denka F 90
Denka FB 30
Denka FB 44
Denka FB 74
Denka FS 30
Dri-Die 67
Silica gel spherical, 40-75 mum particle size
Cryptocrystalline quartz
FB 20 (silica)
Elsil 100
F 44 (filler)
Elsil BF 100
F 125 (silica)
F 160 (silica)
Silicon dioxide, 99.998%, (trace metal basis)
Fuselex RD 40-60
Silica, amorphous, fused
Celite(R), for analysis, high purity analytical grade
Silica gel 60, 0.060-0.2mm (70-230 mesh)
Silicon dioxide (vitreous)
Silicon dioxide, amorphous, hexamethyldisilazane treated
silanedione
GP 7I
Silica gel, for chromatography, 0.030-0.200 mm, 60 A
Silica gel, for chromatography, 0.035-0.070 mm, 90 A
Silica gel, for chromatography, 0.075-0.250 mm, 150 A
Silica gel, for drying purposes, non-toxic grade, 3-6 mm
AF-SO 25R
Silica gel, for column chrom., ultrapure, 60-200 $6, 60A
Silicom dioxide
Silicic oxide
GP 11I
RD 8
Silicon(IV) oxide, 30% in ethylene glycol, colloidal dispersion
Silicon di-oxide
CRS 1102RD8
Silica, tridymite
Diatomaceous earth, flux-calcined, filter aid, treated with sodium carbonate, flux calcined
Silica gel 60 ADAMANT(TM) on TLC plates, with fluorescent indicator 254 nm
EF 10
FS 74
MR 84
Chromosorb&reg; P
Silica gel, functionalized, (cyclohexylcarbodiimido)propyl, ca. 0,9 mmol-g, particle size: 40-63 micron
EINECS 262-373-8
Silica gel (blue)
Silica gel, ASTM
Siliceous sand, CP
BF 100
EQ 912
QG 100
RD 120
68611-44-9
Celite 503
Nettles p.e. extract
iNEO(1)eOaIA
Silica, fumed, powder
Silicon dioxide (NF)
PhosphonicS Si-SCYT1
Sand 50-70 mesh
(1)eou
F 44
Y 40
SiO2.xH2O
(1)eOaIA
Silicon dioxide,nanometer
AC1L2NBM
Crystalline Silica Quartz
Silica gel, ACS reagent
Cab-O-sil(R) M-5
Celite(R) 512 medium
Kieselguhr, -325 mesh
Silica, 99.8%
Diatomaceous earth, powder
DSSTox_CID_9677
Epitope ID:158537
Silica, fumed, hydrophobic
EC 231-545-4
Celite(R) 503, CP
Celite(R) 535, CP
Celite(R) 545, CP
degrees xE O centE degrees
.(1/2)E O cent
DSSTox_RID_78805
DSSTox_GSID_29677
Silicon dioxide, acid washed
Silica, hydrate(8CI,9CI)
Silicon(IV) oxide (SiO2)
13778-37-5
13778-38-6
15723-40-7
17679-64-0
99439-28-8
(1)eE
Silica fibers, 1/4'' long
Kieselguhr, calcined, purified
Silica gel, CP, blue, beads
paragraph signthornNo>> (1)e
Silica, fused, respirable dust
25wt% Silicon Oxide in Water
AC1Q5B87
AC1Q5B88
AW Standard Super-Cel(R) NF
Silica gel, CP, mixed, beads
Silica gel, CP, white, beads
Hyflo(R) Super-Cel(R), CP
No>> (1)e
CHEMBL3188292
DTXSID1029677
Filter agent, Celite(R) 545
Sand, white quartz, CP, beads
Silicon Oxide Hollow Nanospheres
CTK3I8134
Quarz cryst., 0.6-1.2 mm
Silicon dioxide, colloidal (NF)
Diatomaceous earth, flux-calcined
N-Acetyl-L-cysteine ethyl silica
Silicon dioxide, SAJ first grade
VYPSYNLAJGMNEJ-UHFFFAOYSA-N
Diatomaceous earth non-washed, CP
Silica Gel Dessicant (Grade 03)
Silica gel, CP, blue, bead size
Filter agent, Celatom(R) FW-14
Filter agent, Celatom(R) FW-50
Filter agent, Celatom(R) FW-60
Filter agent, Celatom(R) FW-80
Silica, fused [Silica, amorphous]
Silicon dioxide, JIS special grade
Silicon(IV) oxide, Puratronic(R)
(3/4)-OuEUiNEOmicroA(1)eOaIA
Chromosorb(R) G, 80-100 mesh
KS-000000OL
2-Mercaptoethyl ethyl sulfide silica
Celite(R) 545 AW, reagent grade
Silica gel 60, 230-400 mesh
Silicon(IV) oxide, electronic grade
Tox21_301288
LS-866
MFCD06202255
MFCD07370732
MFCD07370733
Sand, white quartz, CP, crystalline
Silica gel, indicating, 6-16 mesh
SILICA, Hexamethyldisilazane treated
Chromosorb(R) W/AW, 45-60 mesh
Light anhydrous silicic acid (JP17)
Quarz fine, cryst., 0.4-0.8 mm
Silica gel, 70-200 mesh (TLC)
Silica, fumed, powder, 0.008 mum
AKOS009085429
ICN Silica 63-100, 100 A
ICN Silica 63-200, 100 A
Silica Gel, 40-63 Micron Particles
LS-2422
RL04340
RP18256
Glass spheres, 9-13 mum particle size
MP Silica 100-200, active 60 A
Quartz (silicon dioxide), silver, pure
Silica gel, CP, white, medium granules
Silica gel, technical grade, 3-9 mesh
Silica, mesostructured, HMS (wormhole)
NCGC00257531-01
Sand, white quartz, purum p.a., powder
Silica gel orange, granular, 0.2-1 mm
Silicon(IV) oxide, powder, 0.5 micron
Silicon(IV) oxide, powder, 1.0 micron
Silicon(IV) oxide, powder, 1.5 micron
14639-89-5
92283-58-4
AN-20376
AN-21798
AN-33411
AN-39178
AN-39447
E551
SC-25876
SC-47167
SC-89620
Silica gel, CP, blue, bead size, medium
Silica gel, technical grade, 6-16 mesh
Silicon oxide powder, 99% Nano, 20 nm
CAS-7631-86-9
Silica gel desiccant, -3+8 mesh granules
Silica gel, 12-24 mesh (liquid drying)
Silica gel, CP, mixed, bead size, medium
Silica gel, for column chromatography, 60
AB1002546
Celite(R) 281, filter aid, flux calcined
Celite(R) S, filter aid, dried, untreated
Chromosorb(R) W/AW-DMCS, 80-100 mesh
LS-145280
LS-145284
LS-145287
Silica gel desiccant, -6+12 mesh granules
Silicon dioxide, purum p.a., acid purified
FT-0624621
FT-0645127
FT-0689145
FT-0689270
FT-0696592
FT-0696603
FT-0697331
FT-0697389
FT-0700917
Quartz rod, fused, 2.0mm (0.079in) dia
Quartz rod, fused, 5.0mm (0.197in) dia
S0821
S0822
Silica gel, with 1-4 mm moisture indicator
Silica, amorphous, fumed (crystalline free)
Celite(R) 110, filter aid, flux calcinated
Celite(R) 512 medium, filter aid, calcined
Chromosorb(R) G/AW-DMCS, 100-120 mesh
Chromosorb(R) W/AW-DMCS, 120-140 mesh
K-411 Glass microspheres, NIST SRM 2066
Quartz rod, fused, 10.0mm (0.394in) dia
Silica gel, technical grade 40, 6-12 mesh
C18 Silica Gel, Endcapped, 60A, 40-63um
D05839
D06521
D06522
Quarz min. 99 % powdered, up to 125 microm
Sand, white quartz, 50-70 mesh particle size
Silica gel, large pore, P.V. ca. 1.65cc/g
Silica, mesostructured, MSU-F (cellular foam)
Celite(R) 209, filter aid, natural, untreated
Celite(R) Analytical Filter Aid II (CAFA II)
Glass sand, NIST(R) SRM(R) 165a, low iron
Silica gel spherical, 75-200 mum particle size
Silica gel, Davisil(R) grade 922, -200 mesh
Silicon oxide powder, 99.5% Nano, 15-20 nm
Diatomaceous earth, calcined, filter aid, calcined
Sand for sand sieve analysis, NIST(R) RM 8010
Silica gel, GF254, for thin layer chromatography
Silica gel, HF254, for thin layer chromatography
Silica gel, Type III, Indicating, for desiccation
Silica, mesostructured, MCM-41 type (hexagonal)
Silicon dioxide, purum p.a., acid purified, sand
Standard Super Cel(R) fine, filter aid, calcined
Celite(R) 500 fine, filter aid, dried, untreated
Glass sand, NIST(R) SRM(R) 1413, high alumina
J-002874
Sand, white quartz, >=99.995% trace metals basis
Silica gel, large pore, P.V. ca. 1cc/g, 8 mesh
Silica gel, technical grade, 1-3 mm particle size
Silica gel, technical grade, 3-6 mm particle size
Silica gel, with moisture indicator (blue), coarse
white carbon; Hydrated Silica; Silicondioxidehydrate
Celpure(R) P65, meets USP/NF testing specifications
I14-19978
I14-38217
I14-41302
I14-42847
I14-43211
I14-52652
I14-91441
Metal scavenging agent, ethylenediamine modified silica
Metal scavenging agent, mercaptopropyl modified silica
Micro particles based on silicon dioxide, size: 2 mum
Micro particles based on silicon dioxide, size: 3 mum
Micro particles based on silicon dioxide, size: 4 mum
Micro particles based on silicon dioxide, size: 5 mum
Quartz lid for 30ml quartz crucible, fused, ID 48mm
Silica gel desiccant, indicating, <1% Cobalt chloride
Silica gel, -60-120 mesh, for column chromatography
Celpure(R) P100, meets USP/NF testing specifications
Celpure(R) P1000, meets USP/NF testing specifications
Celpure(R) P300, meets USP/NF testing specifications
IThorn paragraph sign EthI paragraph signthornNo>> (1)e
Micro particles based on silicon dioxide, size: 0.5 mum
Micro particles based on silicon dioxide, size: 1.0 mum
Silica gel 60, 0.032-0.063mm (230-450 mesh)
Silica gel 60, 0.036-0.071mm (215-400 mesh)
Silica gel 60, 0.040-0.063mm (230-400 mesh)
Silica gel desiccant, indicating, -6+16 mesh granules
Silica gel, with moisture indicator (blue), -6-20 mesh
Silica, mesostructured, MSU-H (large pore 2D hexagonal)
Silica, mesostructured, SBA-15, 99% trace metals basis
Silicon dioxide, -325 mesh, 99.5% trace metals basis
SILICON DIOXIDE, AMORPHOUS, OCTAMETHYLCYCLOTETRASI
Silicon dioxide, washed and calcined, analytical reagent
Silicon(IV) oxide, 15% in water, colloidal dispersion
Silicon(IV) oxide, 30% in water, colloidal dispersion
Silicon(IV) oxide, 40% in water, colloidal dispersion
Silicon(IV) oxide, 50% in water, colloidal dispersion
Silicon(IV) oxide, amorphous fumed, S.A. 85-115m2/g
Chromosorb(R) W, AW-DMCS, 100-120 mesh particle size
Diatomaceous earth, calcined, filter aid, slightly calcined
Micro particles based on silicon dioxide, size: 0.15 mum
Silica gel, high-purity grade (15111), pore size 60 ??
Silica, mesoporous, 1 mum particle size, pore size ~2 nm
Silica, mesoporous, 1 mum particle size, pore size ~4 nm
Silica, mesoporous, 2 mum particle size, pore size ~2 nm
Silica, mesoporous, 2 mum particle size, pore size ~4 nm
Silica, mesoporous, 3 mum particle size, pore size ~2 nm
Silica, mesoporous, 3 mum particle size, pore size ~4 nm
Silicon(IV) oxide, amorphous fumed, S.A. 130-170m2/g
Silicon(IV) oxide, amorphous fumed, S.A. 350-420m2/g
UNII-2RF6EJ0M85 component VYPSYNLAJGMNEJ-UHFFFAOYSA-N
Amorphous silica: Vitreous silica, quartz glass, fused silica
Diatomaceous earth, flux-calcined, filter aid, flux calcined
LUDOX(R) AM colloidal silica, 30 wt. % suspension in H2O
LUDOX(R) CL colloidal silica, 30 wt. % suspension in H2O
LUDOX(R) CL-X colloidal silica, 45 wt. % suspension in H2O
LUDOX(R) LS colloidal silica, 30 wt. % suspension in H2O
LUDOX(R) SM colloidal silica, 30 wt. % suspension in H2O
LUDOX(R) TMA colloidal silica, 34 wt. % suspension in H2O
Silica gel orange, with moisture indicator free of heavy metals
Silica gel, high-purity grade, FIA according to DIN 51791
Silica, mesoporous, 0.5 mum particle size, pore size ~2 nm
Silica, mesoporous, 0.5 mum particle size, pore size ~4 nm
Silica, standard solution, Specpure(R), SiO2 1000microg/ml
Silicon dioxide, acid washed and calcined, Analytical Reagent
Silicon dioxide, crystalline (fine), coating quality, >=99.9%
Silicon(IV) oxide, amorphous fumed, S.A. 175-225m(2)/g
Silicon(IV) oxide, amorphous fumed, S.A. 300-350m(2)/g
Chromosorb(R) P, NAW, 60-80 mesh particle size, bottle of 100 g
Chromosorb(R) W, AW, 80-100 mesh particle size, bottle of 100 g
Chromosorb(R) W, HP, 60-80 mesh particle size, bottle of 100 g
Diatomaceous earth, calcined, powder, suitable for most filtrations
LUDOX(R) AS-30 colloidal silica, 30 wt. % suspension in H2O
LUDOX(R) AS-40 colloidal silica, 40 wt. % suspension in H2O
LUDOX(R) HS-30 colloidal silica, 30 wt. % suspension in H2O
LUDOX(R) HS-40 colloidal silica, 40 wt. % suspension in H2O
LUDOX(R) TM-40 colloidal silica, 40 wt. % suspension in H2O
LUDOX(R) TM-50 colloidal silica, 50 wt. % suspension in H2O
Quartz Optical Window, 25.4mm (1.0in) dia x 1mm (0.04in) thick
Quartz Optical Window, 25.4mm (1.0in) dia x 2mm (0.08in) thick
Silica gel 60, 230 - 400 mesh, for flash column chromatography
Silica gel, Davisil(R) grade 22, pore size 60 ??, 60-200 mesh
Silica gel, high-purity grade, 60??, 35-60 mesh particle size
Silica gel, high-purity grade, pore size 60 ??, 70-230 mesh
Silica gel, HPLC grade, spherical, 3 micron APS, 120 angstroms
Silica gel, HPLC grade, spherical, 3 micron APS, 70 angstroms
Silica gel, large pore, powder, S.A. 300m2/g, P.V. 1.6cc/g
Silica gel, technical grade (w/ fluorescent indicator), 60 F254
Silica gel, Type H, without binder, for thin layer chromatography
Silica gel, Type II, 3.5 mm bead size, Suitable for desiccation
Silica, fumed, powder, 0.2-0.3 mum avg. part. size (aggregate)
Silicon dioxide, for cleaning of platinum crucibles, calcined, crude
Silicon dioxide, fused (pieces), 4 mm, 99.99% trace metals basis
Silicon oxide, catalyst support, high surface area, S.A.250m2/g
Silicon(IV) oxide, 99.5% (metals basis) , -325 Mesh Powder
Celatom(R), acid-washed, for use in Total Dietary Fiber Assay, TDF-100A
Chromosorb(R) G, HP, 100-120 mesh particle size, bottle of 100 g
Chromosorb(R) P, AW-DMCS, 80-100 mesh particle size, bottle of 100 g
Chromosorb(R) W, AW, 100-120 mesh particle size, bottle of 100 g
Chromosorb(R) W, HP, 100-120 mesh particle size, bottle of 100 g
NBS 28 (silicon and oxygen isotopes in silica sand), NIST(R) RM 8546
Quartz disc, fused, 50.8mm (2.0in) dia x 1.59mm (0.06in) thick
Quartz disc, fused, 50.8mm (2.0in) dia x 3.18mm (0.13in) thick
Quartz disc, fused, 76.2 (3.0 in) dia x 3.18mm (0.13in) thick
Quartz disc, fused, 76.2mm (3.0in) dia x 1.59mm (0.06in) thick
Quartz microscope slide, fused, 25.4x25.4x1.0mm (1.0x1.0x0.0394in)
Quartz microscope slide, fused, 50.8x25.4x1.0mm (2.0x1.0x0.0394in)
Quartz microscope slide, fused, 76.2x25.4x1.0mm (3.0x1.0x0.0394in)
Silica gel 60, 0.105-0.2mm (70-150 mesh), S.A. 500-600m2/g
Silica gel, high purity, 90??, 35-70 mesh, for column chromatography
Silica gel, high-purity grade (7734), pore size 60 ??, 70-230 mesh
Silica gel, high-purity grade (7754), pore size 60 ??, 70-230 mesh
Silica gel, high-purity grade, 40, >=400 mesh, for column chromatography
Silica gel, high-purity grade, 40, 35-70 mesh, for column chromatography
Silica gel, high-purity grade, 40, 70-230 mesh, for column chromatography
Silica gel, high-purity grade, 90??, 15-25 mum, for column chromatography
Silica gel, high-purity grade, pore size 40 ??, 35-70 mesh particle size
Silica gel, high-purity grade, pore size 60 ??, >=400 mesh particle size
Silica gel, technical grade, pore size 60 ??, 200-425 mesh particle size
Silica gel, technical grade, pore size 60 ??, 70-230 mesh, 63-200 mum
Silica, nanoparticles, mesoporous, 200 nm particle size, pore size 4 nm
Silicon dioxide, ~99%, 0.5-10 mum (approx. 80% between 1-5 mum)
Silicon dioxide, amorphous, cyclic azasilane/hexamethyldisilazane treated
Silicon dioxide, fused (granular), 4-20 mesh, 99.9% trace metals basis
(1)eOaIA pound notOuEUiNEO pound not paragraph signthorn(1/4)x>>uAE(1)eIe>>
Diatomaceous earth, flux-calcined, filter aid, flux calcined, treated with sodium carbonate
Diatomaceous earth, flux-calcined, filter aid, treated with sodium carbonate, calcined
Silica gel 60 ADAMANT(TM) on TLC plates, with fluorescence indicator 254 nm
Silica gel 60, 0.019-0.037mm (400-600 mesh), S.A. 500-600m2/g
Silica gel 60, 0.062-0.105mm (150-230 mesh), S.A. 500-600m2/g
Silica gel, Davisil(R) grade 710, pore size 50-76 ??, for thin layer chromatography
Silica gel, high-purity grade (10180), pore size 40 ??, 70-230 mesh particle size
Silica gel, high-purity grade (9385), pore size 60 ??, 230-400 mesh particle size
Silica gel, high-purity grade (Davisil Grade 12), pore size 22 ??, 28-200 mesh
Silica gel, high-purity grade (Davisil Grade 62), pore size 150 ??, 60-200 mesh
Silica gel, high-purity grade (Davisil Grade 635), pore size 60 ??, 60-100 mesh
Silica gel, high-purity grade (Davisil Grade 643), pore size 150 ??, 200-425 mesh
Silica gel, high-purity grade (Davisil Grade 646), 35-60 mesh, pore size 150 ??
Silica gel, high-purity grade (Davisil Grade 923), pore size 30 ??, 100-200 mesh
Silica gel, high-purity grade, 100??, 200-400 mesh, for preparative liquid chromatography
Silica gel, high-purity grade, 40??, 230-400 mesh, for preparative liquid chromatography
Silica gel, high-purity grade, 60??, gypsum ~13 %, for preparative liquid chromatography
Silica gel, high-purity grade, 90??, 70-230 mesh, for column chromatography
Silica gel, high-purity grade, for thin layer chromatography, H, without calcium sulfate
Silica gel, high-purity grade, pore size 60 ??, 130-270 mesh, for column chromatography
Silica gel, high-purity grade, pore size 60 ??, 200-400 mesh particle size
Silica gel, high-purity grade, Type G, 5-15 mum, for thin layer chromatography
Silica gel, preparative chromatography grade, spherical, 10 micron APS, 60 angstroms
Silica gel, preparative chromatography grade, spherical, 15 micron APS, 120 angstroms
Silica gel, preparative chromatography grade, spherical, 15 micron APS, 60 angstroms
Silica gel, preparative chromatography grade, spherical, 50 micron APS, 60 angstroms
Silica gel, preparative chromatography grade, spherical, 7 micron APS, 120 angstroms
Silica gel, wide pore, 150 angstroms, -100+200 Mesh, S.A. 350-400m2/g
Silica Nanosprings TM coated with zinc oxide and grown on fiber glass substrate (3.5 x 8cm)
Silica, mesoporous MCM-48, 15 mum particle size, pore size 3 nm, Cubic pore morphology
Silica, mesoporous SBA-16, <150 mum particle size, pore size 5 nm, Cubic pore morphology
Silica, nanopowder, spec. surface area 175-225 m2/g (BET), 99.8% trace metals basis
Silicon dioxide, nanopowder, 10-20 nm particle size (BET), 99.5% trace metals basis
Silicon(IV) oxide sputtering target, 50.8mm (2.0in) dia x 3.18mm (0.125in) thick
Silicon(IV) oxide sputtering target, 50.8mm (2.0in) dia x 6.35mm (0.250in) thick
Silicon(IV) oxide sputtering target, 76.2mm (3.0in) dia x 3.18mm (0.125in) thick
Silicon(IV) oxide sputtering target, 76.2mm (3.0in) dia x 6.35mm (0.250in) thick
Silicon(IV) oxide, 40% in water, colloidal dispersion, 0.02 micron particles
Silicon(IV) oxide, amorphous fumed, surface treated, S.A. 105-130m(2)/g, -325 mesh
Silicon(IV) oxide, amorphous fumed, surface treated, S.A. 105-145m(2)/g, -325 mesh
Silicon(IV) oxide, amorphous fumed, surface treated, S.A. 205-245m(2)/g, -325 mesh
98253-25-9
Diatomaceous earth, flux-calcined, filter aid, acid washed, treated with sodium carbonate, flux calcined
Respirable alpha-quartz, NIST(R) SRM(R) 1878b, quantitative X-ray powder diffraction standard
Silica gel 60, with fluorescent indicator, 0.060-0.2mm (70-230 mesh), S.A. 500-600m2/g
Silica gel, 30 mum particle size (average), average pore diameter 60 ??, Suitable for normal-phase adsorption-partition chromatography
Silica gel, EMD Millipore, TLC grade (11695), 15 mum, pore size 60 ??, with silica/alumina binder
Silica gel, high-purity grade (7749), with gypsum binder and fluorescent indicator, for thin layer chromatography
Silica gel, high-purity grade (Davisil Grade 633), pore size 60 ??, 200-425 mesh particle size
Silica gel, high-purity grade (Davisil Grade 636), pore size 60 ??, 35-60 mesh particle size
Silica gel, high-purity grade (puriss), pore size 60 ??, 70-230 mesh, for column chromatography
Silica gel, high-purity grade (w/ Ca, ~0.1%), pore size 60 ??, 230-400 mesh particle size
Silica gel, high-purity grade, HF254, without calcium sulfate, with fluorescent indicator, for thin layer chromatography
Silica gel, high-purity grade, pore size 60 ??, 2-25 mum particle size, without binder, pore volume 0.75 cm3/g, for thin layer chromatography
Silica gel, high-purity grade, pore size 60 ??, 2-25 mum particle size, without binder, with fluorescent indicator, pore volume 0.75 cm3/g, for thin layer chromatography
Silica gel, high-purity grade, pore size 60 ??, 220-440 mesh particle size, 35-75 mum particle size, for flash chromatography
Silica gel, high-purity grade, pore size 60 ??, 230-400 mesh particle size, 40-63 mum particle size, for flash chromatography
Silica gel, high-purity grade, pore size 60 ??, 5-25 mum particle size, without binder, for thin layer chromatography
Silica gel, high-purity grade, pore size 60 ??, 70-230 mesh, 63-200 mum, for column chromatography
Silica gel, high-purity grade, Type G, with ~13% calcium sulfate, for thin layer chromatography
Silica gel, high-purity grade, with ~15% calcium sulfate and fluorescent indicator, GF254, for thin layer chromatography
Silica gel, HPLC grade, spherical, 2.2 micron APS, 120 angstroms, 99.99+% , S.A. 340m2/g, P.V. 1.00cc/g
Silica gel, HPLC grade, spherical, 2.2 micron APS, 80 angstroms, 99.99+% , S.A. 470m2/g, P.V. 0.95cc/g
Silica gel, HPLC grade, spherical, 3 micron APS, 260 angstroms, 99.99+%, S.A. 130m2/g, P.V. 0.90cc/g
Silica gel, HPLC grade, spherical, 5 micron APS, 120 angstroms, 99.99+% , S.A. 340m2/g, P.V. 1.00cc/g
Silica gel, HPLC grade, spherical, 5 micron APS, 260 angstroms, 99.99+% , S.A. 150m2/g, P.V. 0.90cc/g
Silica gel, HPLC grade, spherical, 5 micron APS, 70 angstroms, 99.99+% , S.A. 500m2/g, P.V. 0.95cc/g
Silica gel, HPLC/UHPLC grade, spherical, 1.6 micron APS, 110 angstroms, 99.99+%, S.A. 340m2/g, P.V. 0.95cc/g
Silica gel, HPLC/UHPLC grade, spherical, 1.8 micron APS, 110 angstroms, 99.99+% , S.A. 340m2/g, P.V. 0.95cc/g
Silica gel, preparative chromatography grade, spherical, 20 micron APS, 100 angstroms, 99.99+% , S.A. 335m2/g, P.V. 1.00cc/g
Silica gel, preparative chromatography grade, spherical, 20 micron APS, 150 angstroms, 99.99+%, S.A. 270m2/g, P.V. 1.00cc/g
Silica gel, preparative chromatography grade, spherical, 20 micron APS, 80 angstroms, 99.99+% , S.A. 515m2/g, P.V. 1.00cc/g
Silica gel, technical grade (w/ Ca, ~0.1%), 60??, 230-400 mesh particle size, Ca 0.1-0.3 %
Silica gel, technical grade, pore size 60 ??, 230-400 mesh particle size, 40-63 mum particle size
Silica gel, TLC high purity grade, with gypsum binder and fluorescent indicator, 12 Micron APS, S.A. 500-600m2/g, 60A, pH 6.5-7.5
Silica gel, TLC high purity grade, with gypsum binder, 12 Micron APS, S.A. 500-600m2/g, 60A, pH 6-7
Silica gel, TLC high purity grade, without binder, 12 Micron APS, S.A. 500-600m2/g, 60, pH 6.5-7.5
Silica gel, TLC high purity grade, without binder, with fluorescent indicator, 12 Micron APS, S.A. 500-600m2/g, 60A, pH 6.5-7.5
Silica gel, TLC high-purity grade, 5-25 mum, pore size 60 ??, with gypsum binder and fluorescent indicator, pore volume 0.75 cm3/g
Silica, mesoporous SBA-15, <150 mum particle size, pore size 4 nm, Hexagonal pore morphology
Silica, mesoporous SBA-15, <150 mum particle size, pore size 6 nm, Hexagonal pore morphology
Silica, mesoporous SBA-15, <150 mum particle size, pore size 8 nm, Hexagonal pore morphology
Silicon dioxide, nanopowder (spherical, porous), 5-15 nm particle size (TEM), 99.5% trace metals basis
Silicon dioxide, single crystal substrate, optical grade, 99.99% trace metals basis, &#60;0001&#62;, L x W x thickness 10 mm x 10 mm x 0.5 mm
Silicon oxide, catalyst support, high surface area, S.A.160m2/g, total pore volume 0.5cc/g, pore size 100 and 1000 angstrom
Silicon(IV) oxide, 40% in water, colloidal dispersion, 0.02 micron particles, S.A. 200m 2/g

> <TPSA>
34.1

> <TotalAidCount>
213

> <TotalFormalCharge>
0

> <database>
PubChem Compound

> <matchingCount>
176

> <primaryID>
24261

> <queryTranslation>
7628[CompoundID] OR 244[CompoundID] OR 25059[CompoundID] OR 7618[CompoundID] OR 7641[CompoundID] OR 5053[CompoundID] OR 637511[CompoundID] OR 7714[CompoundID] OR 7762[CompoundID] OR 25429[CompoundID]
OR 8842[CompoundID] OR 7794[CompoundID] OR 637566[CompoundID] OR 7843[CompoundID] OR 174[CompoundID] OR 7870[CompoundID] OR 86102[CompoundID] OR 7888[CompoundID] OR 7896[CompoundID] OR 1140[CompoundID
] OR 8042[CompoundID] OR 8058[CompoundID] OR 8078[CompoundID] OR 8087[CompoundID] OR 8117[CompoundID] OR 8133[CompoundID] OR 115224[CompoundID] OR 8175[CompoundID] OR 8194[CompoundID] OR 445639[Compou
ndID] OR 4944[CompoundID] OR 8294[CompoundID] OR 93541[CompoundID] OR 8360[CompoundID] OR 8363[CompoundID] OR 656612[CompoundID] OR 125098[CompoundID] OR 3352[CompoundID] OR 3303913[CompoundID] OR 648
05[CompoundID] OR 31200[CompoundID] OR 1712058[CompoundID] OR 31236[CompoundID] OR 31239[CompoundID] OR 31265[CompoundID] OR 31266[CompoundID] OR 31276[CompoundID] OR 6950273[CompoundID] OR 518659[Com
poundID] OR 14896[CompoundID] OR 14798[CompoundID] OR 14829[CompoundID] OR 14830[CompoundID] OR 8635[CompoundID] OR 23266[CompoundID] OR 4284[CompoundID] OR 8693[CompoundID] OR 22311[CompoundID] OR 87
59[CompoundID] OR 8785[CompoundID] OR 2723810[CompoundID] OR 8857[CompoundID] OR 3893[CompoundID] OR 9936739[CompoundID] OR 516892[CompoundID] OR 5430[CompoundID] OR 9017[CompoundID] OR 15433[Compound
ID] OR 107720[CompoundID] OR 9552081[CompoundID] OR 164825[CompoundID] OR 10275455[CompoundID] OR 16666[CompoundID] OR 9839306[CompoundID] OR 5282227[CompoundID] OR 23676745[CompoundID] OR 32881[Compo
undID] OR 91581[CompoundID] OR 39800[CompoundID] OR 33344[CompoundID] OR 15962220[CompoundID] OR 33528[CompoundID] OR 5365075[CompoundID] OR 62829[CompoundID] OR 162381[CompoundID] OR 517202[CompoundI
D] OR 6433353[CompoundID] OR 2730[CompoundID] OR 5372405[CompoundID] OR 36081[CompoundID] OR 3120[CompoundID] OR 3017[CompoundID] OR 2969[CompoundID] OR 18827[CompoundID] OR 19518[CompoundID] OR 19658
[CompoundID] OR 38283[CompoundID] OR 2758[CompoundID] OR 10112[CompoundID] OR 10340[CompoundID] OR 712[CompoundID] OR 5794[CompoundID] OR 3347[CompoundID] OR 104150[CompoundID] OR 2912[CompoundID] OR
2450[CompoundID] OR 40326[CompoundID] OR 40585[CompoundID] OR 517055[CompoundID] OR 10913[CompoundID] OR 108242[CompoundID] OR 62097[CompoundID] OR 41679[CompoundID] OR 54680676[CompoundID] OR 62118[C
ompoundID] OR 753[CompoundID] OR 1030[CompoundID] OR 23673837[CompoundID] OR 54678504[CompoundID] OR 11442[CompoundID] OR 11463[CompoundID] OR 22230[CompoundID] OR 440917[CompoundID] OR 6054[CompoundI
D] OR 43234[CompoundID] OR 22629[CompoundID] OR 3039[CompoundID] OR 2735067[CompoundID] OR 6144[CompoundID] OR 702[CompoundID] OR 284[CompoundID] OR 176[CompoundID] OR 91688[CompoundID] OR 22947[Compo
undID] OR 47445[CompoundID] OR 1711973[CompoundID] OR 243[CompoundID] OR 10342051[CompoundID] OR 5281875[CompoundID] OR 3776[CompoundID] OR 6224[CompoundID] OR 104926[CompoundID] OR 8755[CompoundID] O
R 338[CompoundID] OR 123622[CompoundID] OR 23954[CompoundID] OR 6334[CompoundID] OR 2537[CompoundID] OR 24261[CompoundID] OR 23665760[CompoundID] OR 83975[CompoundID] OR 784[CompoundID] OR 24437[Compo
undID] OR 5360315[CompoundID] OR 311[CompoundID] OR 6549[CompoundID] OR 107689[CompoundID] OR 17100[CompoundID] OR 24976875[CompoundID] OR 6654[CompoundID] OR 71245[CompoundID] OR 6442842[CompoundID]
OR 62334[CompoundID] OR 54698175[CompoundID] OR 6328154[CompoundID] OR 24762[CompoundID] OR 440950[CompoundID] OR 7017[CompoundID] OR 5281873[CompoundID] OR 323[CompoundID] OR 5281167[CompoundID] OR 7
175[CompoundID] OR 7292[CompoundID] OR 6335613[CompoundID] OR 7456[CompoundID] OR 7462[CompoundID]

> <resultIndex>
83

> <resultRange>
1-176

> <textQuery>
7628,244,25059,7618,7641,5053,637511,7714,7762,25429,8842,7794,637566,7843,174,7870,86102,7888,7896,1140,8042,8058,8078,8087,8117,8133,115224,8175,8194,445639,4944,8294,93541,8360,8363,656612,125098,3
352,3303913,64805,31200,1712058,31236,31239,31265,31266,31276,6950273,518659,14896,14798,14829,14830,8635,23266,4284,8693,22311,8759,8785,2723810,8857,3893,9936739,516892,5430,9017,15433,107720,955208
1,164825,10275455,16666,9839306,5282227,23676745,32881,91581,39800,33344,15962220,33528,5365075,62829,162381,517202,6433353,2730,5372405,36081,3120,3017,2969,18827,19518,19658,38283,2758,10112,10340,7
12,5794,3347,104150,2912,2450,40326,40585,517055,10913,108242,62097,41679,54680676,62118,753,1030,23673837,54678504,11442,11463,22230,440917,6054,43234,22629,3039,2735067,6144,702,284,176,91688,22947,
47445,1711973,243,10342051,5281875,3776,6224,104926,8755,338,123622,23954,6334,2537,24261,23665760,83975,784,24437,5360315,311,6549,107689,17100,24976875,6654,71245,6442842,62334,54698175,6328154,2476
2,440950,7017,5281873,323,5281167,7175,7292,6335613,7456,7462

$$$$
23,954
  SciTegic10191915303D

  1  0  0  0  0  0            999 V2000
    0.0000    0.0000    0.0000 Ag  0  3
M  CHG  1   1   1
M  END
> <Name>
23,954

> <OBJECTID>
9223372393340403723

> <ActiveAidCount>
0

> <AtomChiralCount>
0

> <AtomChiralDefCount>
0

> <AtomChiralUndefCount>
0

> <BondChiralCount>
0

> <BondChiralDefCount>
0

> <BondChiralUndefCount>
0

> <CID>
23954

> <CanonicalSmiles>
[Ag]

> <Complexity>
0

> <CovalentUnitCount>
1

> <CreateDate>
2004/09/16 00:00

> <HeavyAtomCount>
1

> <HydrogenBondAcceptorCount>
0

> <HydrogenBondDonorCount>
0

> <IUPACName>
silver

> <InChI>
InChI=1S/Ag

> <InChIKey>
BQCADISMDOOEFD-UHFFFAOYSA-N

> <IsomericSmiles>
[Ag]

> <IsotopeAtomCount>
0

> <MeSHHeading>
Silver

> <MeSHTerm>
Silver

> <MolecularFormula>
Ag

> <MolecularWeight>
107.868

> <RotatableBondCount>
0

> <Smiles>
[Ag]

> <SourceCategory>
Chemical Vendors
Legacy Depositors
Research and Development
Curation Efforts
Governmental Organizations
Subscription Services
Journal Publishers
NIH Initiatives

> <Synonym>
Silver
7440-22-4
Argentum
Silver metal
Silver atom
Colloidal silver
Silver, colloidal
Silver, elemental
Algaedyn
Amalgum
Epinall
Silber
Shell silver
Astroflake 5
Carey Lea silver
Silber [German]
Argentum metallicum
Degussa 67
Degussa 80
Silpowder 130
Silflake 135
Jelcon SH 1
KS (metal)
Lead refinery silver bullion
L-3 (element)
Caswell No. 735
Metz 25B
Dotite XA 208
FA 2 (metal)
Germany: C-Pigment 2
D 25 (metal)
G 12 (metal)
TCG 7r
Silver nanoparticles
Ag
Metz 3000-1
UNII-3M4G523W1G
CI 77820
HSDB 5034
C.I. 77820
EINECS 231-131-3
FA 312
LA 113
LS 500
SR 999
EPA Pesticide Chemical Code 072501
Silver needles
Silver powder
Silver flake
Silver foil
Silver shot
Silver wire
Silver, metal
3M4G523W1G
Silver, metal and soluble compounds
Lead refinery silver
Silver, bullion
plata
SILVER COMPOUNDS
Silver Granufoam
Silver nanowires (stored in ethanol)
Silver and compounds
Silver Powder, 99.95% (metal basis) Nano
Silver, brazing alloy, 1.6mm (0.06in) dia
Nanosilver
Argentium
Theraworx
Silver plate
Silver wool
CCRIS 9464
Silver nanowires
Silver rod
Silver, 99.9%, foil, 25x25 mm, 1.0 mm thick, 1ea = 6.6gr
Silver, foil, 0.5m coil, thickness 0.025mm, annealed, 99.95+%
Silver, foil, 0.5m coil, thickness 0.035mm, as rolled, 99.95+%
Silver, foil, 1m coil, thickness 0.025mm, annealed, 99.95+%
Silver, foil, 1m coil, thickness 0.035mm, as rolled, 99.95+%
Silver, foil, thickness 0.015 mm, size 25 x 25 mm, purity 99.95+%
Silver, foil, thickness 0.015 mm, size 50 x 50 mm, purity 99.95+%
Silver, foil, thickness 0.030 mm, size 260 x 300 mm, purity 99.95+%
Nanosilver colloid
Silver (metal)
silber(II)hydride
Silver nanoparticles (100nm, 0.02mg/ml in 2mM sodium citrate, abs. max. 490)
Silver, dispersion
silver (II)
SunTronic&reg; Silver
Silver nanoparticle ink
Silver standard solution
Silverjet DGH-55HTG
Silver, conductive paste
SILVER PROTEIN DAC
Silver, 99.9%
47Ag
Ag++
Ag+2
Ag2+
EC 231-131-3
AC1L2N3Y
Silver powder, -100 mesh
Silverjet DGH-55LT-25C
Silverjet DGP-40LT-15C
Silverjet DGP-40TE-20C
69011-54-7
KSC355K6D
Ag(0)
Silver, powder, -100 Mesh
ACMC-1C641
CHEBI:9141
DTXSID4024305
Silver flake, APS 4-8 micron
CHEBI:30512
CTK2F5561
HSDB 7056
Silver on alumina, 3%-4% Ag
DTXSID80161148
Silver powder, APS 1-3 micron
Silver powder, APS 4-7 micron
Silver rod, 5mm (0.2in) dia
BQCADISMDOOEFD-UHFFFAOYSA-N
Silver flake, 80% <20 micron
Silver flake, 90% <20 micron
XYDQMRVDDPZFMM-UHFFFAOYSA-N
Silver nanopowder, APS 20-40nm
Silver Paste DGP80 TESM8020
Silver, brazing flux, white paste
Silver powder, -120 mesh, Premion
AKOS005259067
Silver powder, spherical, -325 mesh
Silver powder, spherical, -500 mesh
Silver powder, spherical, -635 mesh
DB12965
RTR-037638
Silver powder, -22 mesh, Premion(R)
Silver powder, APS 0.7-1.3 micron
Silver rod, 6.35mm (0.25in) dia
Silver, colloidal, 65-75% Ag basis
KS-0000117D
TRA-0205498
Silver on alumina, 2.4 x 4 mm pellets
Silver Powder, 99% (metal basis) Nano
Silver shot, 1-5mm (0.04-0.2in)
LS-145390
Silver powder, -120+325 mesh, atomized
Silver Powder, 99.5% (metal basis) Nano
Silver rod, 12.7mm (0.5in) dia, hard
Silver wire, 1.0mm (0.04in) dia, hard
Silver wire, 2.0mm (0.08in) dia, hard
TR-037638
E 174
FT-0695892
Silver foil, 1.0mm (0.04in) thick, hard
Silver foil, 2.0mm (0.08in) thick, hard
Silver plate, 3.175mm (0.125in) thick
Silver wire, 0.25mm (0.01in) dia, hard
Silver powder, spherical, APS 0.5-1 micron
Silver powder, spherical, APS 0.6-2 micron
Silver, solder alloy, 1.6mm (0.06in) dia
Silver, solder alloy, 3.0mm (0.13in) dia
C06710
Palladium Silver foil, 0.5mm (0.02in) thick
Silver (20nm,10 wt%) nanopowder, 99.99%
Silver foil, 0.28mm (0.011in) thick, hard
Silver foil, 0.38mm (0.015in) thick, hard
Silver rod, 3.175mm (0.125in) dia, hard
Silver rod, 7mm (0.275in) dia, Premion(R)
Silver wire, 0.025mm (0.001in) dia, hard
Silver wire, 0.127mm (0.005in) dia, hard
Silver wire, 0.203mm (0.008in) dia, hard
Silver wire, 0.5mm (0.02in) dia, annealed
Silver wire, 1.0mm (0.04in) dia, annealed
Silver wire, 2.0mm (0.08in) dia, annealed
Silver, rod, diam. 6.35 mm, >=99.95%
Palladium Silver foil, 0.25mm (0.01in) thick
Silver (20nm, 25 wt%) nanopowder, 99.99%
Silver foil, 0.075mm (0.003in) thick, hard
Silver foil, 0.5mm (0.02in) thick, annealed
Silver foil, 1.0mm (0.04in) thick, annealed
Silver foil, 2.0mm (0.08in) thick, annealed
Silver freezing-point standard, NIST SRM 1746
Silver powder, spherical, APS 1.3-3.2 micron
Silver shot, 1-3mm (0.04-0.1in), Premion
Silver Thinfoil, 0.005mm (0.0002in) thick
Silver wire, 0.015mm (0.0006in) dia, hard
Silver wire, 0.05mm (0.002in) dia, annealed
Silver wire, 0.25mm (0.01in) dia, annealed
Silver wire, 0.5mm (0.02in) dia, 1/2 hard
Silver wire, 0.64mm (0.025in) dia, annealed
Silver foil, 0.05mm (0.002in) thick, annealed
Silver foil, 0.28mm (0.011in) thick, annealed
Silver plating solution, metal content ~28.7g/l
Silver Thinfoil, 0.0125mm (0.0005in) thick
Silver wire, 0.127mm (0.005in) dia, annealed
Silver wire, 0.5mm (0.02in) dia, Premion(R)
Silver wire, 1.0mm (0.04in) dia, Premion(R)
Silver wire, 1.5mm (0.06in) dia, Premion(R)
Silver wire, 2.0mm (0.08in) dia, Premion(R)
Silver foil, 0.025mm (0.001in) thick, annealed
Silver foil, 0.127mm (0.005in) thick, annealed
Silver foil, 0.5mm (0.02in) thick, Premion(R)
Silver foil, 1.0mm (0.04in) thick, Premion(R)
Silver foil, 2.0mm (0.08in) thick, Premion(R)
Silver rod, 12.5mm (0.492in) dia, Premion(R)
Silver shot, 1-5mm (0.04-0.2in), Premion(R)
Silver wire, 0.015mm (0.0006in) dia, annealed
Silver wire, 0.05mm (0.002in) dia, Premion(R)
Silver wire, 0.1mm (0.004in) dia, Premion(R)
Silver wire, 0.25mm (0.01in) dia, Premion(R)
Silver wire, 0.404mm (0.0159in) dia, annealed
I14-90993
Silver shot, 2-3mm (0.08-0.12in), Premion(R)
Silver wire, gold plated, 0.025mm (0.001in) dia
Silver, shot, 1-3 mm, 99.999% trace metals basis
S018000000
Silver casting grain, 1.6-6.35mm (0.063-0.25in)
Silver powder, crystalline, -10+20 mesh, Premion(R)
Silver powder, crystalline, -60+80 mesh, Premion(R)
Silver, flakes, 10 mum, >=99.9% trace metals basis
Silver, foil, 0.2m coil, thickness 0.003mm, 99.9%
Silver, foil, 0.5m coil, thickness 0.003mm, 99.9%
Silver, foil, 10mm disks, thickness 0.003mm, 99.9%
Silver, foil, 10mm disks, thickness 0.02mm, 99.97%
Silver, foil, 15mm disks, thickness 0.003mm, 99.9%
Silver, foil, 15mm disks, thickness 0.02mm, 99.97%
Silver, foil, 1m coil, thickness 0.008mm, 99.95+%
Silver, foil, 1m coil, thickness 0.01mm, 99.95+%
Silver, foil, 25mm disks, thickness 0.003mm, 99.9%
Silver, foil, 25mm disks, thickness 0.02mm, 99.97%
Silver, foil, 4mm disks, thickness 0.003mm, 99.9%
Silver, foil, 4mm disks, thickness 0.004mm, 99.97%
Silver, foil, 4mm disks, thickness 0.005mm, 99.97%
Silver, foil, 4mm disks, thickness 0.006mm, 99.97%
Silver, foil, 4mm disks, thickness 0.007mm, 99.97%
Silver, foil, 4mm disks, thickness 0.008mm, 99.97%
Silver, foil, 4mm disks, thickness 0.009mm, 99.97%
Silver, foil, 4mm disks, thickness 0.015mm, 99.97%
Silver, foil, 4mm disks, thickness 0.01mm, 99.95+%
Silver, foil, 4mm disks, thickness 0.02mm, 99.97%
Silver, foil, 50mm disks, thickness 0.003mm, 99.9%
Silver, foil, 6mm disks, thickness 0.003mm, 99.9%
Silver, foil, 6mm disks, thickness 0.004mm, 99.97%
Silver, foil, 6mm disks, thickness 0.005mm, 99.97%
Silver, foil, 6mm disks, thickness 0.006mm, 99.97%
Silver, foil, 6mm disks, thickness 0.007mm, 99.97%
Silver, foil, 6mm disks, thickness 0.008mm, 99.97%
Silver, foil, 6mm disks, thickness 0.009mm, 99.97%
Silver, foil, 6mm disks, thickness 0.015mm, 99.97%
Silver, foil, 6mm disks, thickness 0.01mm, 99.95+%
Silver, foil, 6mm disks, thickness 0.02mm, 99.97%
Silver, foil, 8mm disks, thickness 0.003mm, 99.9%
Silver, foil, 8mm disks, thickness 0.004mm, 99.97%
Silver, foil, 8mm disks, thickness 0.005mm, 99.97%
Silver, foil, 8mm disks, thickness 0.006mm, 99.97%
Silver, foil, 8mm disks, thickness 0.007mm, 99.97%
Silver, foil, 8mm disks, thickness 0.008mm, 99.97%
Silver, foil, 8mm disks, thickness 0.009mm, 99.97%
Silver, foil, 8mm disks, thickness 0.015mm, 99.97%
Silver, foil, 8mm disks, thickness 0.01mm, 99.95+%
Silver, foil, 8mm disks, thickness 0.02mm, 99.97%
Silver, plasma standard solution, Specpure, Ag 10g/ml
Silver, powder, <250 mum, 99.99% trace metals basis
Silver, powder, 5-8 mum, >=99.9% trace metals basis
Silver, shot, 1-3 mm, >=99.99% trace metals basis
Silver, wire, diam. 0.1 mm, 99.9% trace metals basis
Silver, wire, diam. 0.5 mm, 99.9% trace metals basis
Silver, wire, diam. 1.0 mm, 99.9% trace metals basis
Silver, wire, diam. 1.5 mm, 99.9% trace metals basis
Silver, wire, diam. 2.0 mm, 99.9% trace metals basis
Silver foil, 0.1mm (0.004in) thick, hard, Premion(R)
Silver foil, 0.25mm (0.01in) thick, hard, Premion(R)
Silver, foil, 0.2m coil, thickness 0.008mm, 99.95+%
Silver, foil, 0.2m coil, thickness 0.01mm, 99.95+%
Silver, foil, 0.5m coil, thickness 0.008mm, 99.95+%
Silver, foil, 0.5m coil, thickness 0.0125mm, 99.95+%
Silver, foil, 0.5m coil, thickness 0.01mm, 99.95+%
Silver, foil, 10mm disks, thickness 0.0025mm, 99.97%
Silver, foil, 10mm disks, thickness 0.004mm, 99.97%
Silver, foil, 10mm disks, thickness 0.005mm, 99.97%
Silver, foil, 10mm disks, thickness 0.006mm, 99.97%
Silver, foil, 10mm disks, thickness 0.007mm, 99.97%
Silver, foil, 10mm disks, thickness 0.008mm, 99.95+%
Silver, foil, 10mm disks, thickness 0.008mm, 99.97%
Silver, foil, 10mm disks, thickness 0.009mm, 99.97%
Silver, foil, 10mm disks, thickness 0.015mm, 99.97%
Silver, foil, 10mm disks, thickness 0.01mm, 99.95+%
Silver, foil, 15mm disks, thickness 0.0025mm, 99.97%
Silver, foil, 15mm disks, thickness 0.004mm, 99.97%
Silver, foil, 15mm disks, thickness 0.005mm, 99.97%
Silver, foil, 15mm disks, thickness 0.006mm, 99.97%
Silver, foil, 15mm disks, thickness 0.007mm, 99.97%
Silver, foil, 15mm disks, thickness 0.008mm, 99.95+%
Silver, foil, 15mm disks, thickness 0.008mm, 99.97%
Silver, foil, 15mm disks, thickness 0.009mm, 99.97%
Silver, foil, 15mm disks, thickness 0.015mm, 99.97%
Silver, foil, 15mm disks, thickness 0.01mm, 99.95+%
Silver, foil, 1m coil, thickness 0.0125mm, 99.95+%
Silver, foil, 25mm disks, thickness 0.004mm, 99.97%
Silver, foil, 25mm disks, thickness 0.005mm, 99.97%
Silver, foil, 25mm disks, thickness 0.006mm, 99.97%
Silver, foil, 25mm disks, thickness 0.007mm, 99.97%
Silver, foil, 25mm disks, thickness 0.008mm, 99.95+%
Silver, foil, 25mm disks, thickness 0.008mm, 99.97%
Silver, foil, 25mm disks, thickness 0.009mm, 99.97%
Silver, foil, 25mm disks, thickness 0.015mm, 99.97%
Silver, foil, 25mm disks, thickness 0.01mm, 99.95+%
Silver, foil, 2m coil, thickness 0.0125mm, 99.95+%
Silver, foil, 4mm disks, thickness 0.0025mm, 99.97%
Silver, foil, 4mm disks, thickness 0.008mm, 99.95+%
Silver, foil, 4mm disks, thickness 0.0125mm, 99.95+%
Silver, foil, 50mm disks, thickness 0.008mm, 99.95+%
Silver, foil, 50mm disks, thickness 0.01mm, 99.95+%
Silver, foil, 6mm disks, thickness 0.0025mm, 99.97%
Silver, foil, 6mm disks, thickness 0.008mm, 99.95+%
Silver, foil, 6mm disks, thickness 0.0125mm, 99.95+%
Silver, foil, 8mm disks, thickness 0.0025mm, 99.97%
Silver, foil, 8mm disks, thickness 0.008mm, 99.95+%
Silver, foil, 8mm disks, thickness 0.0125mm, 99.95+%
Silver, foil, thickness 0.1 mm, 99.9% trace metals basis
Silver, foil, thickness 0.5 mm, 99.9% trace metals basis
Silver, foil, thickness 1.0 mm, 99.9% trace metals basis
Silver, foil, thickness 1.5 mm, 99.9% trace metals basis
Silver, foil, thickness 2.0 mm, 99.9% trace metals basis
Silver, granular, >250 mum, 99.99% trace metals basis
Silver, Oil based standard solution, Specpure, Ag 1000g/g
Silver, Oil based standard solution, Specpure, Ag 5000g/g
Silver, powder, <45 mum, >=99.99% trace metals basis
Silver, powder, 2-3.5 mum, >=99.9% trace metals basis
Silver, rod, 100mm, diameter 16mm, as drawn, 99.95+%
Silver, rod, 25mm, diameter 16mm, as drawn, 99.95+%
Silver, rod, 25mm, diameter 25mm, as drawn, 99.95+%
Silver, rod, 50mm, diameter 16mm, as drawn, 99.95+%
Silver, rod, 50mm, diameter 6.0mm, as drawn, 99.95+%
Silver, rod, 50mm, diameter 8.0mm, as drawn, 99.95+%
Silver, rod, diam. 3.2 mm, 99.98% trace metals basis
Silver, rod, diam. 7.0 mm, 99.99% trace metals basis
Silver, wire reel, 1m, diameter 0.015mm, hard, 99.99%
Silver, wire reel, 5m, diameter 0.015mm, hard, 99.99%
Silver, wire, diam. 0.25 mm, 99.9% trace metals basis
Silver foil, 0.025mm (0.001in) thick, annealed, Premion(R)
Silver foil, 0.025mm (0.001in) thick, hard, Premion(R)
Silver foil, 0.1mm (0.004in) thick, annealed, Premion(R)
Silver foil, 0.25mm (0.01in) thick, annealed, Premion(R)
Silver nanoparticle ink, 30 wt % dispersion in ethylene glycol
Silver plating solution, electroless, metal content ~2.1g/l
Silver, AAS standard solution, Specpure(R), Ag 1000microg/ml
Silver, foil, 10mm disks, thickness 0.0125mm, 99.95+%
Silver, foil, 15mm disks, thickness 0.0125mm, 99.95+%
Silver, foil, 1m coil, thickness 0.05mm, annealed, 99.95+%
Silver, foil, 1m coil, thickness 0.1mm, as rolled, 99.95+%
Silver, foil, 25mm disks, thickness 0.0125mm, 99.95+%
Silver, foil, 25x25mm, thickness 0.1mm, annealed, 99.95+%
Silver, foil, 50mm disks, thickness 0.0125mm, 99.95+%
Silver, foil, 50x50mm, thickness 0.1mm, annealed, 99.95+%
Silver, foil, 50x50mm, thickness 3mm, as rolled, 99.95+%
Silver, foil, 50x50mm, thickness 6mm, as rolled, 99.95+%
Silver, foil, thickness 0.025 mm, 99.9% trace metals basis
Silver, foil, thickness 0.075 mm, 99.9% trace metals basis
Silver, foil, thickness 0.25 mm, 99.9% trace metals basis
Silver, foil, thickness 0.25 mm, 99.99% trace metals basis
Silver, foil, thickness 0.5 mm, 99.99% trace metals basis
Silver, foil, thickness 1.0 mm, 99.99% trace metals basis
Silver, needles, 250-600 mum, >=99.99% trace metals basis
Silver, rod, 1000mm, diameter 1.0mm, as drawn, 99.95+%
Silver, rod, 1000mm, diameter 1.5mm, as drawn, 99.95+%
Silver, rod, 1000mm, diameter 2.0mm, as drawn, 99.95+%
Silver, rod, 1000mm, diameter 3.0mm, as drawn, 99.997%
Silver, rod, 1000mm, diameter 3.5mm, as drawn, 99.95+%
Silver, rod, 1000mm, diameter 5.0mm, as drawn, 99.95+%
Silver, rod, 100mm, diameter 1.0mm, as drawn, 99.95+%
Silver, rod, 100mm, diameter 1.5mm, as drawn, 99.95+%
Silver, rod, 100mm, diameter 10.0mm, as drawn, 99.95+%
Silver, rod, 100mm, diameter 12.7mm, as drawn, 99.95+%
Silver, rod, 100mm, diameter 2.0mm, as drawn, 99.95+%
Silver, rod, 100mm, diameter 3.0mm, as drawn, 99.997%
Silver, rod, 100mm, diameter 3.5mm, as drawn, 99.95+%
Silver, rod, 100mm, diameter 5.0mm, as drawn, 99.95+%
Silver, rod, 100mm, diameter 6.0mm, as drawn, 99.95+%
Silver, rod, 100mm, diameter 8.0mm, as drawn, 99.95+%
Silver, rod, 200mm, diameter 1.0mm, as drawn, 99.95+%
Silver, rod, 200mm, diameter 1.5mm, as drawn, 99.95+%
Silver, rod, 200mm, diameter 10.0mm, as drawn, 99.95+%
Silver, rod, 200mm, diameter 2.0mm, as drawn, 99.95+%
Silver, rod, 200mm, diameter 3.0mm, as drawn, 99.997%
Silver, rod, 200mm, diameter 3.5mm, as drawn, 99.95+%
Silver, rod, 200mm, diameter 5.0mm, as drawn, 99.95+%
Silver, rod, 200mm, diameter 6.0mm, as drawn, 99.95+%
Silver, rod, 200mm, diameter 8.0mm, as drawn, 99.95+%
Silver, rod, 25mm, diameter 10.0mm, as drawn, 99.95+%
Silver, rod, 25mm, diameter 12.7mm, as drawn, 99.95+%
Silver, rod, 500mm, diameter 1.0mm, as drawn, 99.95+%
Silver, rod, 500mm, diameter 1.5mm, as drawn, 99.95+%
Silver, rod, 500mm, diameter 2.0mm, as drawn, 99.95+%
Silver, rod, 500mm, diameter 3.0mm, as drawn, 99.997%
Silver, rod, 500mm, diameter 3.5mm, as drawn, 99.95+%
Silver, rod, 500mm, diameter 5.0mm, as drawn, 99.95+%
Silver, rod, 500mm, diameter 6.0mm, as drawn, 99.95+%
Silver, rod, 500mm, diameter 8.0mm, as drawn, 99.95+%
Silver, rod, 50mm, diameter 10.0mm, as drawn, 99.95+%
Silver, rod, 50mm, diameter 12.7mm, as drawn, 99.95+%
Silver, rod, 50mm, diameter 20.0mm, as drawn, 99.95+%
Silver, sphere, 20pcs, diameter 0.5mm, precision sphere grade
Silver, sphere, 50pcs, diameter 0.5mm, precision sphere grade
Silver, wire reel, 0.1m, diameter 2.0mm, annealed, 99.99%
Silver, wire reel, 0.2m, diameter 1.0mm, annealed, 99.99%
Silver, wire reel, 0.2m, diameter 2.0mm, annealed, 99.99%
Silver, wire reel, 0.5m, diameter 0.8mm, as drawn, 99.99%
Silver, wire reel, 0.5m, diameter 1.0mm, annealed, 99.99%
Silver, wire reel, 0.5m, diameter 2.0mm, annealed, 99.99%
Silver, wire reel, 10m, diameter 0.05mm, annealed, 99.99%
Silver, wire reel, 10m, diameter 0.35mm, annealed, 99.99%
Silver, wire reel, 10m, diameter 0.5mm, annealed, 99.99%
Silver, wire reel, 10m, diameter 0.8mm, as drawn, 99.99%
Silver, wire reel, 10m, diameter 1.0mm, annealed, 99.99%
Silver, wire reel, 1m, diameter 0.0125mm, hard, 99.99%
Silver, wire reel, 1m, diameter 0.015mm, annealed, 99.99%
Silver, wire reel, 1m, diameter 0.025mm, as drawn, 99.99%
Silver, wire reel, 1m, diameter 0.25mm, as drawn, 99.997%
Silver, wire reel, 1m, diameter 0.5mm, annealed, 99.99%
Silver, wire reel, 1m, diameter 0.8mm, as drawn, 99.99%
Silver, wire reel, 1m, diameter 1.0mm, annealed, 99.99%
Silver, wire reel, 1m, diameter 2.0mm, annealed, 99.99%
Silver, wire reel, 20m, diameter 0.25mm, annealed, 99.99%
Silver, wire reel, 20m, diameter 0.35mm, annealed, 99.99%
Silver, wire reel, 20m, diameter 0.5mm, annealed, 99.99%
Silver, wire reel, 2m, diameter 0.025mm, as drawn, 99.99%
Silver, wire reel, 2m, diameter 0.5mm, annealed, 99.99%
Silver, wire reel, 2m, diameter 0.8mm, as drawn, 99.99%
Silver, wire reel, 2m, diameter 2.0mm, annealed, 99.99%
Silver, wire reel, 50m, diameter 0.05mm, annealed, 99.99%
Silver, wire reel, 50m, diameter 0.25mm, annealed, 99.99%
Silver, wire reel, 50m, diameter 0.35mm, annealed, 99.99%
Silver, wire reel, 5m, diameter 0.0125mm, hard, 99.99%
Silver, wire reel, 5m, diameter 0.015mm, annealed, 99.99%
Silver, wire reel, 5m, diameter 0.025mm, as drawn, 99.99%
Silver, wire reel, 5m, diameter 0.125mm, annealed, 99.99%
Silver, wire reel, 5m, diameter 0.25mm, annealed, 99.99%
Silver, wire reel, 5m, diameter 0.25mm, as drawn, 99.997%
Silver, wire reel, 5m, diameter 0.35mm, annealed, 99.99%
Silver, wire reel, 5m, diameter 0.5mm, annealed, 99.99%
Silver, wire reel, 5m, diameter 0.8mm, as drawn, 99.99%
Silver, wire reel, 5m, diameter 1.0mm, annealed, 99.99%
Silver, wire, 0.1 mm diameter, length 10 m, purity 99.99%
Silver, wire, 0.1 mm diameter, length 20 m, purity 99.99%
Silver, wire, 0.1 mm diameter, length 5 m, purity 99.99%
Silver, wire, 0.15 mm diameter, length 5 m, purity 99.99%
Silver, wire, diam. 0.127 mm, 99.99% trace metals basis
Silver, wire, diam. 0.25 mm, >=99.99% trace metals basis
Silver, wire, diam. 0.5 mm, >=99.99% trace metals basis
Silver, wire, diam. 1.0 mm, >=99.99% trace metals basis
Silver, wire, diam. 1.5 mm, >=99.99% trace metals basis
Silver, wire, diam. 2.0 mm, >=99.99% trace metals basis
Silver, wool, diam. 0.05 mm, >=99.9% trace metals basis
nano silver antimicrobial finishing agent (manufacturer/supplier)
Silver gauze, 20 mesh woven from 0.356mm (0.014in) dia wire
Silver gauze, 50 mesh woven from 0.0764mm (0.003in) dia wire
Silver gauze, 80 mesh woven from 0.115mm (0.0045in) dia wire
Silver slug, 3.175mm (0.125in) dia x 6.35mm (0.25in) length
Silver slug, 6.35 (0.25in) dia x 12.7mm (0.50in) length
Silver slug, 6.35mm (0.25in) dia x 6.35mm (0.25in) length
Silver tubing, 6.35mm (0.25in) OD, 4.35mm (0.171in) ID
Silver tubing, 6.35mm (0.25in) OD, 5.84mm (0.230in) ID
Silver two part conductive adhesive, EXP. XX/XX Resin and Hardener
Silver, foil, 0.2m coil, thickness 0.025mm, as rolled, 99.99+%
Silver, foil, 0.5m coil, thickness 0.025mm, as rolled, 99.95+%
Silver, foil, 0.5m coil, thickness 0.025mm, as rolled, 99.99+%
Silver, foil, 0.5m coil, thickness 0.05mm, annealed, 99.95+%
Silver, foil, 0.5m coil, thickness 0.05mm, as rolled, 99.95+%
Silver, foil, 0.5m coil, thickness 0.075mm, as rolled, 99.95+%
Silver, foil, 0.5m coil, thickness 0.125mm, annealed, 99.95+%
Silver, foil, 0.5m coil, thickness 0.125mm, as rolled, 99.95+%
Silver, foil, 0.5m coil, thickness 0.15mm, as rolled, 99.95+%
Silver, foil, 0.5m coil, thickness 0.1mm, annealed, 99.95+%
Silver, foil, 0.5m coil, thickness 0.1mm, as rolled, 99.95+%
Silver, foil, 100x100mm, thickness 0.125mm, annealed, 99.95+%
Silver, foil, 100x100mm, thickness 0.15mm, as rolled, 99.95+%
Silver, foil, 100x100mm, thickness 0.1mm, annealed, 99.95+%
Silver, foil, 100x100mm, thickness 0.1mm, as rolled, 99.95+%
Silver, foil, 100x100mm, thickness 0.20mm, as rolled, 99.95+%
Silver, foil, 100x100mm, thickness 0.25mm, as rolled, 99.95+%
Silver, foil, 100x100mm, thickness 0.25mm, as rolled, 99.99+%
Silver, foil, 100x100mm, thickness 0.5mm, as rolled, 99.95+%
Silver, foil, 100x100mm, thickness 0.5mm, as rolled, 99.99+%
Silver, foil, 100x100mm, thickness 1.0mm, as rolled, 99.95+%
Silver, foil, 100x100mm, thickness 1.0mm, as rolled, 99.99+%
Silver, foil, 10mm disks, thickness 0.05mm, as rolled, 99.95+%
Silver, foil, 10mm disks, thickness 0.125mm, annealed, 99.95+%
Silver, foil, 10mm disks, thickness 0.15mm, as rolled, 99.95+%
Silver, foil, 10mm disks, thickness 0.1mm, annealed, 99.95+%
Silver, foil, 10mm disks, thickness 0.1mm, as rolled, 99.95+%
Silver, foil, 10mm disks, thickness 0.20mm, as rolled, 99.95+%
Silver, foil, 10mm disks, thickness 0.25mm, as rolled, 99.95+%
Silver, foil, 10mm disks, thickness 0.25mm, as rolled, 99.99+%
Silver, foil, 10mm disks, thickness 0.5mm, as rolled, 99.95+%
Silver, foil, 10mm disks, thickness 0.5mm, as rolled, 99.99+%
Silver, foil, 10mm disks, thickness 1.0mm, as rolled, 99.95+%
Silver, foil, 10mm disks, thickness 1.0mm, as rolled, 99.99+%
Silver, foil, 150x150mm, thickness 0.125mm, annealed, 99.95+%
Silver, foil, 150x150mm, thickness 0.15mm, as rolled, 99.95+%
Silver, foil, 150x150mm, thickness 0.1mm, annealed, 99.95+%
Silver, foil, 150x150mm, thickness 0.1mm, as rolled, 99.95+%
Silver, foil, 150x150mm, thickness 0.20mm, as rolled, 99.95+%
Silver, foil, 150x150mm, thickness 0.25mm, as rolled, 99.95+%
Silver, foil, 150x150mm, thickness 0.25mm, as rolled, 99.99+%
Silver, foil, 150x150mm, thickness 0.5mm, as rolled, 99.95+%
Silver, foil, 150x150mm, thickness 0.5mm, as rolled, 99.99+%
Silver, foil, 150x150mm, thickness 1.0mm, as rolled, 99.99+%
Silver, foil, 150x300mm, thickness 0.125mm, annealed, 99.95+%
Silver, foil, 15mm disks, thickness 0.05mm, as rolled, 99.95+%
Silver, foil, 15mm disks, thickness 0.125mm, annealed, 99.95+%
Silver, foil, 15mm disks, thickness 0.15mm, as rolled, 99.95+%
Silver, foil, 15mm disks, thickness 0.1mm, annealed, 99.95+%
Silver, foil, 15mm disks, thickness 0.1mm, as rolled, 99.95+%
Silver, foil, 15mm disks, thickness 0.20mm, as rolled, 99.95+%
Silver, foil, 15mm disks, thickness 0.25mm, as rolled, 99.95+%
Silver, foil, 15mm disks, thickness 0.25mm, as rolled, 99.99+%
Silver, foil, 15mm disks, thickness 0.5mm, as rolled, 99.95+%
Silver, foil, 15mm disks, thickness 0.5mm, as rolled, 99.99+%
Silver, foil, 15mm disks, thickness 1.0mm, as rolled, 99.95+%
Silver, foil, 15mm disks, thickness 1.0mm, as rolled, 99.99+%
Silver, foil, 19mm disks, thickness 0.5mm, as rolled, 99.95+%
Silver, foil, 1m coil, thickness 0.025mm, as rolled, 99.95+%
Silver, foil, 1m coil, thickness 0.05mm, as rolled, 99.95+%
Silver, foil, 1m coil, thickness 0.075mm, as rolled, 99.95+%
Silver, foil, 1m coil, thickness 0.125mm, annealed, 99.95+%
Silver, foil, 1m coil, thickness 0.125mm, as rolled, 99.95+%
Silver, foil, 25mm disks, thickness 0.05mm, as rolled, 99.95+%
Silver, foil, 25mm disks, thickness 0.125mm, annealed, 99.95+%
Silver, foil, 25mm disks, thickness 0.15mm, as rolled, 99.95+%
Silver, foil, 25mm disks, thickness 0.1mm, annealed, 99.95+%
Silver, foil, 25mm disks, thickness 0.1mm, as rolled, 99.95+%
Silver, foil, 25mm disks, thickness 0.20mm, as rolled, 99.95+%
Silver, foil, 25mm disks, thickness 0.25mm, as rolled, 99.95+%
Silver, foil, 25mm disks, thickness 0.25mm, as rolled, 99.99+%
Silver, foil, 25mm disks, thickness 0.5mm, as rolled, 99.95+%
Silver, foil, 25mm disks, thickness 0.5mm, as rolled, 99.99+%
Silver, foil, 25mm disks, thickness 1.0mm, as rolled, 99.95+%
Silver, foil, 25mm disks, thickness 1.0mm, as rolled, 99.99+%
Silver, foil, 25x25mm, thickness 0.125mm, annealed, 99.95+%
Silver, foil, 25x25mm, thickness 0.125mm, as rolled, 99.95+%
Silver, foil, 25x25mm, thickness 0.125mm, as rolled, 99.99+%
Silver, foil, 25x25mm, thickness 0.15mm, as rolled, 99.95+%
Silver, foil, 25x25mm, thickness 0.1mm, as rolled, 99.95+%
Silver, foil, 25x25mm, thickness 0.20mm, as rolled, 99.95+%
Silver, foil, 25x25mm, thickness 0.25mm, as rolled, 99.95+%
Silver, foil, 25x25mm, thickness 0.25mm, as rolled, 99.99+%
Silver, foil, 25x25mm, thickness 0.5mm, as rolled, 99.95+%
Silver, foil, 25x25mm, thickness 0.5mm, as rolled, 99.99+%
Silver, foil, 25x25mm, thickness 1.0mm, as rolled, 99.95+%
Silver, foil, 25x25mm, thickness 1.0mm, as rolled, 99.99+%
Silver, foil, 25x25mm, thickness 2.0mm, as rolled, 99.95+%
Silver, foil, 2m coil, thickness 0.025mm, annealed, 99.95+%
Silver, foil, 2m coil, thickness 0.025mm, as rolled, 99.95+%
Silver, foil, 2m coil, thickness 0.035mm, as rolled, 99.95+%
Silver, foil, 2m coil, thickness 0.05mm, as rolled, 99.95+%
Silver, foil, 2m coil, thickness 0.075mm, as rolled, 99.95+%
Silver, foil, 300x300mm, thickness 0.1mm, annealed, 99.95+%
Silver, foil, 4mm disks, thickness 0.025mm, as rolled, 99.95+%
Silver, foil, 4mm disks, thickness 0.025mm, as rolled, 99.99+%
Silver, foil, 4mm disks, thickness 0.035mm, as rolled, 99.95+%
Silver, foil, 4mm disks, thickness 0.05mm, as rolled, 99.95+%
Silver, foil, 4mm disks, thickness 0.075mm, as rolled, 99.95+%
Silver, foil, 4mm disks, thickness 0.125mm, annealed, 99.95+%
Silver, foil, 4mm disks, thickness 0.125mm, as rolled, 99.95+%
Silver, foil, 4mm disks, thickness 0.125mm, as rolled, 99.99+%
Silver, foil, 4mm disks, thickness 0.15mm, as rolled, 99.95+%
Silver, foil, 4mm disks, thickness 0.1mm, annealed, 99.95+%
Silver, foil, 4mm disks, thickness 0.1mm, as rolled, 99.95+%
Silver, foil, 4mm disks, thickness 0.20mm, as rolled, 99.95+%
Silver, foil, 4mm disks, thickness 0.25mm, as rolled, 99.95+%
Silver, foil, 4mm disks, thickness 0.25mm, as rolled, 99.99+%
Silver, foil, 4mm disks, thickness 0.5mm, as rolled, 99.95+%
Silver, foil, 4mm disks, thickness 0.5mm, as rolled, 99.99+%
Silver, foil, 4mm disks, thickness 1.0mm, as rolled, 99.95+%
Silver, foil, 4mm disks, thickness 1.0mm, as rolled, 99.99+%
Silver, foil, 50mm disks, thickness 0.05mm, as rolled, 99.95+%
Silver, foil, 50mm disks, thickness 0.125mm, annealed, 99.95+%
Silver, foil, 50mm disks, thickness 0.15mm, as rolled, 99.95+%
Silver, foil, 50mm disks, thickness 0.1mm, annealed, 99.95+%
Silver, foil, 50mm disks, thickness 0.1mm, as rolled, 99.95+%
Silver, foil, 50mm disks, thickness 0.20mm, as rolled, 99.95+%
Silver, foil, 50mm disks, thickness 0.25mm, as rolled, 99.95+%
Silver, foil, 50mm disks, thickness 0.25mm, as rolled, 99.99+%
Silver, foil, 50x50mm, thickness 0.125mm, annealed, 99.95+%
Silver, foil, 50x50mm, thickness 0.125mm, as rolled, 99.95+%
Silver, foil, 50x50mm, thickness 0.125mm, as rolled, 99.99+%
Silver, foil, 50x50mm, thickness 0.15mm, as rolled, 99.95+%
Silver, foil, 50x50mm, thickness 0.1mm, as rolled, 99.95+%
Silver, foil, 50x50mm, thickness 0.20mm, as rolled, 99.95+%
Silver, foil, 50x50mm, thickness 0.25mm, as rolled, 99.95+%
Silver, foil, 50x50mm, thickness 0.25mm, as rolled, 99.99+%
Silver, foil, 50x50mm, thickness 0.5mm, as rolled, 99.95+%
Silver, foil, 50x50mm, thickness 0.5mm, as rolled, 99.99+%
Silver, foil, 50x50mm, thickness 1.0mm, as rolled, 99.95+%
Silver, foil, 50x50mm, thickness 1.0mm, as rolled, 99.99+%
Silver, foil, 50x50mm, thickness 2.0mm, as rolled, 99.95+%
Silver, foil, 6mm disks, thickness 0.025mm, as rolled, 99.95+%
Silver, foil, 6mm disks, thickness 0.025mm, as rolled, 99.99+%
Silver, foil, 6mm disks, thickness 0.035mm, as rolled, 99.95+%
Silver, foil, 6mm disks, thickness 0.05mm, as rolled, 99.95+%
Silver, foil, 6mm disks, thickness 0.075mm, as rolled, 99.95+%
Silver, foil, 6mm disks, thickness 0.125mm, annealed, 99.95+%
Silver, foil, 6mm disks, thickness 0.125mm, as rolled, 99.95+%
Silver, foil, 6mm disks, thickness 0.125mm, as rolled, 99.99+%
Silver, foil, 6mm disks, thickness 0.15mm, as rolled, 99.95+%
Silver, foil, 6mm disks, thickness 0.1mm, annealed, 99.95+%
Silver, foil, 6mm disks, thickness 0.1mm, as rolled, 99.95+%
Silver, foil, 6mm disks, thickness 0.20mm, as rolled, 99.95+%
Silver, foil, 6mm disks, thickness 0.25mm, as rolled, 99.95+%
Silver, foil, 6mm disks, thickness 0.25mm, as rolled, 99.99+%
Silver, foil, 6mm disks, thickness 0.5mm, as rolled, 99.95+%
Silver, foil, 6mm disks, thickness 0.5mm, as rolled, 99.99+%
Silver, foil, 6mm disks, thickness 1.0mm, as rolled, 99.95+%
Silver, foil, 6mm disks, thickness 1.0mm, as rolled, 99.99+%
Silver, foil, 8mm disks, thickness 0.025mm, as rolled, 99.95+%
Silver, foil, 8mm disks, thickness 0.025mm, as rolled, 99.99+%
Silver, foil, 8mm disks, thickness 0.035mm, as rolled, 99.95+%
Silver, foil, 8mm disks, thickness 0.05mm, as rolled, 99.95+%
Silver, foil, 8mm disks, thickness 0.075mm, as rolled, 99.95+%
Silver, foil, 8mm disks, thickness 0.125mm, annealed, 99.95+%
Silver, foil, 8mm disks, thickness 0.125mm, as rolled, 99.95+%
Silver, foil, 8mm disks, thickness 0.125mm, as rolled, 99.99+%
Silver, foil, 8mm disks, thickness 0.15mm, as rolled, 99.95+%
Silver, foil, 8mm disks, thickness 0.1mm, annealed, 99.95+%
Silver, foil, 8mm disks, thickness 0.1mm, as rolled, 99.95+%
Silver, foil, 8mm disks, thickness 0.20mm, as rolled, 99.95+%
Silver, foil, 8mm disks, thickness 0.25mm, as rolled, 99.95+%
Silver, foil, 8mm disks, thickness 0.25mm, as rolled, 99.99+%
Silver, foil, 8mm disks, thickness 0.5mm, as rolled, 99.95+%
Silver, foil, 8mm disks, thickness 0.5mm, as rolled, 99.99+%
Silver, foil, 8mm disks, thickness 1.0mm, as rolled, 99.95+%
Silver, foil, 8mm disks, thickness 1.0mm, as rolled, 99.99+%
Silver, foil, light tested, 25x25mm, thickness 0.008mm, 99.97%
Silver, foil, light tested, 25x25mm, thickness 0.009mm, 99.97%
Silver, foil, light tested, 25x25mm, thickness 0.015mm, 99.97%
Silver, foil, light tested, 25x25mm, thickness 0.02mm, 99.97%
Silver, foil, light tested, 50x50mm, thickness 0.015mm, 99.97%
Silver, foil, light tested, 50x50mm, thickness 0.02mm, 99.97%
Silver, foil, thickness 0.015 mm, 4 mm diameter, purity 99.95+%
Silver, foil, thickness 0.015 mm, diameter 6 mm, purity 99.95+%
Silver, foil, thickness 0.015 mm, diameter 8 mm, purity 99.95+%
Silver, foil, thickness 0.015 mm, length 0.2 m, purity 99.95+%
Silver, foil, thickness 0.015 mm, length 0.5 m, purity 99.95+%
Silver, foil, thickness 0.015 mm, length 1 m, purity 99.95+%
Silver, foil, thickness 0.030 mm, length 0.2 m, purity 99.95+%
Silver, foil, thickness 0.030 mm, length 0.5 m, purity 99.95+%
Silver, foil, thickness 0.030 mm, length 1 m, purity 99.95+%
Silver, foil, thickness 0.5 mm, 10 mm diameter, purity 99.95+%
Silver, foil, thickness 0.5 mm, 25 mm diameter, purity 99.95+%
Silver, foil, thickness 0.5 mm, 6 mm diameter, purity 99.95+%
Silver, foil, thickness 0.5 mm, 8 mm diameter, purity 99.95+%
Silver, foil, thickness 0.5 mm, diameter 15 mm, purity 99.95+%
Silver, foil, thickness 0.5 mm, diameter 4 mm, purity 99.95+%
Silver, lump, 10 mm max. lump size, weight 20 g, purity 99.99%
Silver, lump, 10 mm max. lump size, weight 50 g, purity 99.99%
Silver, lump, 20 mm max. lump size, weight 50 g, purity 99.99%
Silver, lump, 6 mm max. lump size, weight 100 g, purity 99.99%
Silver, lump, 6 mm max. lump size, weight 20 g, purity 99.99%
Silver, lump, 6 mm max. lump size, weight 50 g, purity 99.99%
Silver, nanopowder, <150 nm particle size, 99% trace metals basis
Silver, plasma standard solution, Specpure(R), Ag 10,000microg/ml
Silver, plasma standard solution, Specpure(R), Ag 1000microg/ml
Silver, rod, 7.0 mm diameter, length 100 mm, high purity 99.99%
Silver, rod, 7.0 mm diameter, length 100 mm, purity 99.95+%
Silver, rod, 7.0 mm diameter, length 200 mm, high purity 99.99%
Silver, rod, 7.0 mm diameter, length 50 mm, high purity 99.99%
Silver, rod, 7.0 mm diameter, length 50 mm, purity 99.95+%
Silver, rod, 7.0 mm diameter, length 500 mm, high purity 99.99%
Silver, rod, 7.0 mm diameter, length 500 mm, purity 99.95+%
Silver, rod, 7.0 mm diameter, purity 99.95+%, length 200 mm
Silver, sphere, 100pcs, diameter 0.5mm, precision sphere grade
Silver, sphere, 200pcs, diameter 0.5mm, precision sphere grade
Silver, wire reel, 0.5m, diameter 0.050mm, gold plated, 99.99%
Silver, wire reel, 0.5m, diameter 0.25mm, as drawn, 99.997%
Silver, wire reel, 1000m, diameter 0.05mm, annealed, 99.99%
Silver, wire reel, 100m, diameter 0.05mm, annealed, 99.99%
Silver, wire reel, 100m, diameter 0.125mm, annealed, 99.99%
Silver, wire reel, 100m, diameter 0.25mm, annealed, 99.99%
Silver, wire reel, 10m, diameter 0.025mm, as drawn, 99.99%
Silver, wire reel, 10m, diameter 0.125mm, annealed, 99.99%
Silver, wire reel, 10m, diameter 0.25mm, as drawn, 99.997%
Silver, wire reel, 1m, diameter 0.050mm, gold plated, 99.99%
Silver, wire reel, 20m, diameter 0.025mm, as drawn, 99.99%
Silver, wire reel, 20m, diameter 0.125mm, annealed, 99.99%
Silver, wire reel, 25m, diameter 0.25mm, as drawn, 99.997%
Silver, wire reel, 2m, diameter 0.050mm, gold plated, 99.99%
Silver, wire reel, 500m, diameter 0.05mm, annealed, 99.99%
Silver, wire reel, 500m, diameter 0.125mm, annealed, 99.99%
Silver, wire reel, 5m, diameter 0.050mm, gold plated, 99.99%
Silver, wire, 0.025 mm diameter, length 1 m, purity 99.99%
Silver, wire, 0.025 mm diameter, length 10 m, purity 99.99%
Silver, wire, 0.025 mm diameter, length 20 m, purity 99.99%
Silver, wire, 0.025 mm diameter, length 5 m, purity 99.99%
Silver, wire, 0.075 mm diameter, length 5 m, purity 99.99%
Silver, wire, 0.1 mm diameter, length 100 m, purity 99.99%
Silver, wire, 0.1 mm diameter, length 500 m, purity 99.99%
Silver, wire, 0.15 mm diameter, length 10 m, purity 99.99%
Silver, wire, 0.15 mm diameter, length 100 m, purity 99.99%
Silver, wire, 0.15 mm diameter, length 20 m, purity 99.99%
Silver, wire, 0.15 mm diameter, length 250 m, purity 99.99%
Silver, wire, length 2 m, 0.025 mm diameter, purity 99.99%
Silver nanoparticle (<20nm) in acetone at 100mg/L (surfactant-free)
Silver Powder, 99.9% (metal basis) Surface coated with 0.2 wt% PVP
Silver slug, 3.175mm (0.125in) dia x 3.175mm (0.125in) length
Silver sputtering target, 50.8mm (2.0in) dia x 3.18mm (0.125in) thick
Silver sputtering target, 50.8mm (2.0in) dia x 6.35mm (0.250in) thick
Silver sputtering target, 76.2mm (3.0in) dia x 3.18mm (0.125in) thick
Silver sputtering target, 76.2mm (3.0in) dia x 6.35mm (0.250in) thick
Silver, 99.9%, (trace metal basis), wire, 1.0 mm diam., 1ea = 8.2gr
Silver, 99.9%, (trace metal basis), wire, 2.0 mm diam., 1ea = 16.5gr
Silver, foil, 0.5m coil, thickness 0.0125mm, coil width 9mm, 99.95+%
Silver, foil, 100x100mm, thickness 0.125mm, as rolled, 99.95+%
Silver, foil, 100x100mm, thickness 0.125mm, as rolled, 99.99+%
Silver, foil, 10m coil, thickness 0.0125mm, coil width 9mm, 99.95+%
Silver, foil, 10mm disks, thickness 0.025mm, as rolled, 99.95+%
Silver, foil, 10mm disks, thickness 0.025mm, as rolled, 99.99+%
Silver, foil, 10mm disks, thickness 0.035mm, as rolled, 99.95+%
Silver, foil, 10mm disks, thickness 0.075mm, as rolled, 99.95+%
Silver, foil, 10mm disks, thickness 0.125mm, as rolled, 99.95+%
Silver, foil, 10mm disks, thickness 0.125mm, as rolled, 99.99+%
Silver, foil, 150x150mm, thickness 0.125mm, as rolled, 99.95+%
Silver, foil, 150x150mm, thickness 0.125mm, as rolled, 99.99+%
Silver, foil, 150x300mm, thickness 0.125mm, as rolled, 99.95+%
Silver, foil, 15mm disks, thickness 0.025mm, as rolled, 99.95+%
Silver, foil, 15mm disks, thickness 0.025mm, as rolled, 99.99+%
Silver, foil, 15mm disks, thickness 0.035mm, as rolled, 99.95+%
Silver, foil, 15mm disks, thickness 0.075mm, as rolled, 99.95+%
Silver, foil, 15mm disks, thickness 0.125mm, as rolled, 99.95+%
Silver, foil, 15mm disks, thickness 0.125mm, as rolled, 99.99+%
Silver, foil, 1m coil, thickness 0.0125mm, coil width 9mm, 99.95+%
Silver, foil, 25mm disks, thickness 0.025mm, as rolled, 99.95+%
Silver, foil, 25mm disks, thickness 0.025mm, as rolled, 99.99+%
Silver, foil, 25mm disks, thickness 0.035mm, as rolled, 99.95+%
Silver, foil, 25mm disks, thickness 0.075mm, as rolled, 99.95+%
Silver, foil, 25mm disks, thickness 0.125mm, as rolled, 99.95+%
Silver, foil, 25mm disks, thickness 0.125mm, as rolled, 99.99+%
Silver, foil, 2m coil, thickness 0.0125mm, coil width 9mm, 99.95+%
Silver, foil, 50mm disks, thickness 0.025mm, as rolled, 99.95+%
Silver, foil, 50mm disks, thickness 0.025mm, as rolled, 99.99+%
Silver, foil, 50mm disks, thickness 0.035mm, as rolled, 99.95+%
Silver, foil, 50mm disks, thickness 0.075mm, as rolled, 99.95+%
Silver, foil, 50mm disks, thickness 0.125mm, as rolled, 99.95+%
Silver, foil, 50mm disks, thickness 0.125mm, as rolled, 99.99+%
Silver, foil, 5m coil, thickness 0.0125mm, coil width 9mm, 99.95+%
Silver, foil, light tested, 100x100mm, thickness 0.015mm, 99.97%
Silver, foil, light tested, 100x100mm, thickness 0.02mm, 99.97%
Silver, foil, light tested, 25x25mm, thickness 0.0125mm, 99.95+%
Silver, foil, light tested, 50x50mm, thickness 0.0125mm, 99.95+%
Silver, foil, not light tested, 100x100mm, thickness 0.0025mm, 99.97%
Silver, foil, not light tested, 100x100mm, thickness 0.002mm, 99.97%
Silver, foil, not light tested, 100x100mm, thickness 0.003mm, 99.9%
Silver, foil, not light tested, 100x100mm, thickness 0.004mm, 99.97%
Silver, foil, not light tested, 100x100mm, thickness 0.005mm, 99.97%
Silver, foil, not light tested, 100x100mm, thickness 0.006mm, 99.97%
Silver, foil, not light tested, 100x100mm, thickness 0.007mm, 99.97%
Silver, foil, not light tested, 100x100mm, thickness 0.008mm, 99.95+%
Silver, foil, not light tested, 100x100mm, thickness 0.008mm, 99.97%
Silver, foil, not light tested, 100x100mm, thickness 0.009mm, 99.97%
Silver, foil, not light tested, 100x100mm, thickness 0.015mm, 99.97%
Silver, foil, not light tested, 100x100mm, thickness 0.01mm, 99.95+%
Silver, foil, not light tested, 100x100mm, thickness 0.02mm, 99.97%
Silver, foil, not light tested, 150x150mm, thickness 0.003mm, 99.9%
Silver, foil, not light tested, 150x150mm, thickness 0.004mm, 99.97%
Silver, foil, not light tested, 150x150mm, thickness 0.005mm, 99.97%
Silver, foil, not light tested, 150x150mm, thickness 0.006mm, 99.97%
Silver, foil, not light tested, 150x150mm, thickness 0.007mm, 99.97%
Silver, foil, not light tested, 150x150mm, thickness 0.008mm, 99.97%
Silver, foil, not light tested, 150x150mm, thickness 0.009mm, 99.97%
Silver, foil, not light tested, 150x150mm, thickness 0.01mm, 99.95+%
Silver, foil, not light tested, 150x150mm, thickness 0.02mm, 99.97%
Silver, foil, not light tested, 25x25mm, thickness 0.001mm, 99.97%
Silver, foil, not light tested, 25x25mm, thickness 0.0025mm, 99.97%
Silver, foil, not light tested, 25x25mm, thickness 0.002mm, 99.97%
Silver, foil, not light tested, 25x25mm, thickness 0.003mm, 99.9%
Silver, foil, not light tested, 25x25mm, thickness 0.004mm, 99.97%
Silver, foil, not light tested, 25x25mm, thickness 0.005mm, 99.97%
Silver, foil, not light tested, 25x25mm, thickness 0.006mm, 99.97%
Silver, foil, not light tested, 25x25mm, thickness 0.007mm, 99.97%
Silver, foil, not light tested, 25x25mm, thickness 0.008mm, 99.95+%
Silver, foil, not light tested, 25x25mm, thickness 0.008mm, 99.97%
Silver, foil, not light tested, 25x25mm, thickness 0.009mm, 99.97%
Silver, foil, not light tested, 25x25mm, thickness 0.0125mm, 99.95+%
Silver, foil, not light tested, 25x25mm, thickness 0.01mm, 99.95+%
Silver, foil, not light tested, 50x50mm, thickness 0.001mm, 99.97%
Silver, foil, not light tested, 50x50mm, thickness 0.0025mm, 99.97%
Silver, foil, not light tested, 50x50mm, thickness 0.002mm, 99.97%
Silver, foil, not light tested, 50x50mm, thickness 0.003mm, 99.9%
Silver, foil, not light tested, 50x50mm, thickness 0.004mm, 99.97%
Silver, foil, not light tested, 50x50mm, thickness 0.005mm, 99.97%
Silver, foil, not light tested, 50x50mm, thickness 0.006mm, 99.97%
Silver, foil, not light tested, 50x50mm, thickness 0.007mm, 99.97%
Silver, foil, not light tested, 50x50mm, thickness 0.008mm, 99.95+%
Silver, foil, not light tested, 50x50mm, thickness 0.008mm, 99.97%
Silver, foil, not light tested, 50x50mm, thickness 0.009mm, 99.97%
Silver, foil, not light tested, 50x50mm, thickness 0.0125mm, 99.95+%
Silver, foil, not light tested, 50x50mm, thickness 0.015mm, 99.97%
Silver, foil, not light tested, 50x50mm, thickness 0.01mm, 99.95+%
Silver, foil, thickness 0.015 mm, 10 mm diameter, purity 99.95+%
Silver, foil, thickness 0.015 mm, 25 mm diameter, purity 99.95+%
Silver, foil, thickness 0.015 mm, diameter 50 mm, purity 99.95+%
Silver, foil, thickness 0.015 mm, purity 99.95+%, diameter 15 mm
Silver, foil, thickness 0.015 mm, size 100 x 100 mm, purity 99.95+%
Silver, foil, thickness 0.015 mm, size 200 x 200 mm, purity 99.95+%
Silver, foil, thickness 0.030 mm, size 100 x 100 mm, purity 99.95+%
Silver, foil, thickness 0.030 mm, size 50 x 50 mm, purity 99.95+%
Silver, foil, thickness 0.075 mm, coil width 0.40 mm, length 1 m
Silver, foil, thickness 0.075 mm, length 0.2 m, coil width 0.40 mm
Silver, foil, thickness 0.075 mm, length 0.5 m, coil width 0.40 mm
Silver, foil, thickness 0.075 mm, length 2 m, coil width 0.40 mm
Silver, foil, thickness 0.075 mm, length 5 m, coil width 0.40 mm
Silver, foil, thickness 0.09 mm, length 0.1 m, coil width 101.6 mm
Silver, foil, thickness 0.09 mm, length 0.2 m, coil width 101.6 mm
Silver, foil, thickness 0.09 mm, length 0.5 m, coil width 101.6 mm
Silver, foil, thickness 0.09 mm, length 1 m, coil width 101.6 mm
Silver, foil, thickness 0.5 mm, size 100 x 100 mm, purity 99.95+%
Silver, foil, thickness 0.5 mm, size 100 x 200 mm, purity 99.95+%
Silver, foil, thickness 0.5 mm, size 50 x 50 mm, purity 99.95+%
Silver, foil, thickness 2.0 mm, size 25 x 25 mm, purity 99.95+%
Silver, foil, thickness 2.0 mm, size 50 x 50 mm, purity 99.95+%
Silver, lump, 10 mm max. lump size, weight 100 g, purity 99.99%
Silver, lump, 20 mm max. lump size, weight 100 g, purity 99.99%
Silver, lump, 3 mm max. lump size, weight 10 g, high purity 99.999%
Silver, lump, 3 mm max. lump size, weight 20 g, high purity 99.999%
Silver, lump, 3 mm max. lump size, weight 50 g, high purity 99.999%
Silver, mesh, size 0.25 mm, size 20 x 20 mm, wire diameter 0.06 mm
Silver, powder, 2 max. part. size (micron), weight 25 g, purity 99.97+%
Silver, powder, 2 max. part. size (micron), weight 50 g, purity 99.97+%
Silver, powder, 45 max. part. size (micron), weight 50 g, purity 99.99%
Silver, powder, max. particle size 2 micron, weight 10 g, purity 99.97+%
Silver, powder, max. particle size 45 micron, weight 10 g, purity 99.99%
Silver, powder, max. particle size 45 micron, weight 20 g, purity 99.99%
Silver nanoparticle (50-70nm) in acetone at 100mg/L (surfactant and reactant-free)
Silver nanoparticle ink, 50 wt. %, dispersion in tripropylene glycol mono methyl ether
Silver nanoparticles (10nm, 0.02mg/ml in 2mM sodium citrate, abs. max. 390-400)
Silver nanoparticles (20nm, 0.02mg/ml in 2mM sodium citrate, abs. max. 405)
Silver nanoparticles (20nm, 0.02mg/ml in 2mM sodium citrate, abs. max. 405) reactant free
Silver nanoparticles (30nm, 0.02mg/ml in 2mM sodium citrate, abs. max. 410)
Silver nanoparticles (30nm, 0.02mg/ml in 2mM sodium citrate, abs. max. 410) reactant free
Silver nanoparticles (40nm, 0.02mg/ml in 2mM sodium citrate, abs. max. 416)
Silver nanoparticles (40nm, 0.02mg/ml in 2mM sodium citrate, abs. max. 416) reactant free
Silver nanoparticles (50nm, 0.02mg/ml in 2mM sodium citrate, abs. max. 425)
Silver nanoparticles (50nm, 0.02mg/ml in 2mM sodium citrate, abs. max. 425) reactant free
Silver nanoparticles (60nm, 0.02mg/ml in 2mM sodium citrate, abs. max. 430)
Silver nanoparticles (60nm, 0.02mg/ml in 2mM sodium citrate, abs. max. 430) reactant free
Silver nanoparticles (80nm, 0.02mg/ml in 2mM sodium citrate, abs. max. 457)
Silver nanoparticles (80nm, 0.02mg/ml in 2mM sodium citrate, abs. max. 457) reactant free
Silver nanowires, diam. x L 115 nm x 20-50 mum, 0.5% (isopropyl alcohol suspension)
Silver nanowires, diam. x L 120-150 nm x 20-50 mum, 0.5% (isopropyl alcohol suspension)
Silver nanowires, diam. x L 60 nm x 10 mum, 0.5% (isopropyl alcohol suspension)
Silver Powder, 99.9% (metal basis), Surface coated with 0.2 wt% oleic acid. Nano
Silver rod, 6.35mm (0.25in) dia x 150mm (5.9in) long, hard, Premion(R)
Silver slug, 3.175mm (0.125in) dia x 3.175mm (0.125in) length, Premion(R)
Silver slug, 3.175mm (0.125in) dia x 6.35mm (0.25in) length, Premion(R)
Silver slug, 6.35mm (0.25in) dia x 12.7mm (0.50in) length, Premion(R)
Silver slug, 6.35mm (0.25in) dia x 6.35mm (0.25in) length, Premion(R)
Silver, 99.9%, (trace metal basis), wire, 0.25 mm diam., 1ea = 10.4gr
Silver, 99.9%, (trace metal basis), wire, 0.5mm diam., length 10m, 1ea = 20gr
Silver, dispersion, nanoparticles, <100 nm (particle size TEM), 5 wt. % in ethylene glycol
Silver, evaporation slug, diam. x L 0.6 cm x 1.2 cm, 99.99% trace metals basis
Silver, foil, 0.3m coil, thickness 0.125mm, coil width 300mm, annealed, 99.95+%
Silver, foil, 0.5m coil, thickness 0.125mm, coil width 300mm, annealed, 99.95+%
Silver, foil, light tested, 100x100mm, thickness 0.025mm, annealed, 99.95+%
Silver, foil, light tested, 100x100mm, thickness 0.025mm, as rolled, 99.95+%
Silver, foil, light tested, 100x100mm, thickness 0.025mm, as rolled, 99.99+%
Silver, foil, light tested, 100x100mm, thickness 0.035mm, as rolled, 99.95+%
Silver, foil, light tested, 100x100mm, thickness 0.05mm, annealed, 99.95+%
Silver, foil, light tested, 100x100mm, thickness 0.05mm, as rolled, 99.95+%
Silver, foil, light tested, 100x100mm, thickness 0.075mm, as rolled, 99.95+%
Silver, foil, light tested, 150x150mm, thickness 0.025mm, annealed, 99.95+%
Silver, foil, light tested, 150x150mm, thickness 0.025mm, as rolled, 99.95+%
Silver, foil, light tested, 150x150mm, thickness 0.025mm, as rolled, 99.99+%
Silver, foil, light tested, 150x150mm, thickness 0.035mm, as rolled, 99.95+%
Silver, foil, light tested, 150x150mm, thickness 0.05mm, annealed, 99.95+%
Silver, foil, light tested, 150x150mm, thickness 0.05mm, as rolled, 99.95+%
Silver, foil, light tested, 150x150mm, thickness 0.075mm, as rolled, 99.95+%
Silver, foil, light tested, 150x300mm, thickness 0.05mm, as rolled, 99.95+%
Silver, foil, light tested, 150x300mm, thickness 0.075mm, as rolled, 99.95+%
Silver, foil, light tested, 250x300mm, thickness 0.025mm, annealed, 99.95+%
Silver, foil, light tested, 25x25mm, thickness 0.025mm, annealed, 99.95+%
Silver, foil, light tested, 25x25mm, thickness 0.025mm, as rolled, 99.95+%
Silver, foil, light tested, 25x25mm, thickness 0.025mm, as rolled, 99.99+%
Silver, foil, light tested, 25x25mm, thickness 0.035mm, as rolled, 99.95+%
Silver, foil, light tested, 25x25mm, thickness 0.05mm, as rolled, 99.95+%
Silver, foil, light tested, 25x25mm, thickness 0.075mm, as rolled, 99.95+%
Silver, foil, light tested, 300x300mm, thickness 0.025mm, annealed, 99.95+%
Silver, foil, light tested, 300x300mm, thickness 0.025mm, as rolled, 99.95+%
Silver, foil, light tested, 300x300mm, thickness 0.035mm, as rolled, 99.95+%
Silver, foil, light tested, 300x300mm, thickness 0.05mm, annealed, 99.95+%
Silver, foil, light tested, 50x50mm, thickness 0.025mm, annealed, 99.95+%
Silver, foil, light tested, 50x50mm, thickness 0.025mm, as rolled, 99.95+%
Silver, foil, light tested, 50x50mm, thickness 0.025mm, as rolled, 99.99+%
Silver, foil, light tested, 50x50mm, thickness 0.035mm, as rolled, 99.95+%
Silver, foil, light tested, 50x50mm, thickness 0.05mm, annealed, 99.95+%
Silver, foil, light tested, 50x50mm, thickness 0.05mm, as rolled, 99.95+%
Silver, foil, light tested, 50x50mm, thickness 0.075mm, as rolled, 99.95+%
Silver, foil, not light tested, 100x100mm, thickness 0.0125mm, 99.95+%
Silver, foil, not light tested, 100x100mm, thickness 0.025mm, annealed, 99.95+%
Silver, foil, not light tested, 100x100mm, thickness 0.025mm, as rolled, 99.95+%
Silver, foil, not light tested, 150x150mm, thickness 0.025mm, annealed, 99.95+%
Silver, foil, not light tested, 150x150mm, thickness 0.025mm, as rolled, 99.95+%
Silver, foil, not light tested, 250x300mm, thickness 0.025mm, annealed, 99.95+%
Silver, foil, not light tested, 25x25mm, thickness 0.025mm, annealed, 99.95+%
Silver, foil, not light tested, 25x25mm, thickness 0.025mm, as rolled, 99.95+%
Silver, foil, not light tested, 300x300mm, thickness 0.025mm, annealed, 99.95+%
Silver, foil, not light tested, 300x300mm, thickness 0.025mm, as rolled, 99.95+%
Silver, foil, not light tested, 50x50mm, thickness 0.025mm, annealed, 99.95+%
Silver, foil, not light tested, 50x50mm, thickness 0.025mm, as rolled, 99.95+%
Silver, mesh, nominal aperture 0.25 mm, size 100 x 100 mm, wire diameter 0.06 mm
Silver, mesh, nominal aperture 0.25 mm, size 40 x 40 mm, wire diameter 0.06 mm
Silver, powder, 2 max. part. size (micron), weight 100 g, purity 99.97+%
Silver, powder, max. particle size 45 micron, weight 100 g, purity 99.99%
Silver, tube, outside diameter 12.7 mm, length 100 mm, wall thickness 0.5 mm
Silver, tube, outside diameter 12.7 mm, length 200 mm, wall thickness 0.5 mm
Silver, tube, outside diameter 12.7 mm, length 50 mm, wall thickness 0.5 mm
Silver, tube, outside diameter 12.7 mm, length 500 mm, wall thickness 0.5 mm
Silver, tube, outside diameter 8.0 mm, length 100 mm, wall thickness 1.5 mm
Silver, tube, outside diameter 8.0 mm, length 200 mm, wall thickness 1.5 mm
Silver, tube, outside diameter 8.0 mm, length 50 mm, wall thickness 1.5 mm
Silver, tube, outside diameter 8.0 mm, length 500 mm, wall thickness 1.5 mm
Silver nanoparticle (<20nm) in water at 100mg/L (stabilized with < 0.01 mmol/l of citrate)
Silver nanoparticle (<20nm) in water at 500mg/L (stabilized with < 0.01 mmol/l of citrate)
Silver nanoparticle ink, <150 nm particle size (DLS), 20 wt. % (dispersion in organic solvents)
Silver nanoparticles (10nm, 0.02mg/ml in 2mM sodium citrate, abs. max. 390-400) reactant free
Silver, dispersion, nanoparticle, <=50 nm particle size, 30-35 wt. % in triethylene glycol monoethyl ether, spec. resistivity ~2 muOmega-cm, for printing on ITO and glass
Silver, dispersion, nanoparticle, 30-35 wt. % in triethylene glycol monomethyl ether, spec. resistivity ~7 muOmega-cm, for printing on ITO films
Silver, dispersion, nanoparticle, 30-35 wt. % in triethylene glycol monomethyl ether, spec. resistivity 11 muOmega-cm, for printing on plastic films
Silver, dispersion, nanoparticle, 50-60 wt. % in tetradecane, spec. resistivity ~2.2 muOmega-cm, for printing on ITO and glass
Silver, dispersion, nanoparticle, 50-60 wt. % in tetradecane, spec. resistivity ~2.7 muOmega-cm, for printing on polyimide films
Silver, dispersion, nanoparticles, ~157 nm particle size, 0.25 mM in H2O, contains citrate as stabilizer
Silver, dispersion, nanoparticles, 10 nm particle size (TEM), 0.02 mg/mL in aqueous buffer, contains sodium citrate as stabilizer
Silver, dispersion, nanoparticles, 100 nm particle size (TEM), 0.02 mg/mL in aqueous buffer, contains sodium citrate as stabilizer
Silver, dispersion, nanoparticles, 20 nm particle size (TEM), 0.02 mg/mL in aqueous buffer, contains sodium citrate as stabilizer
Silver, dispersion, nanoparticles, 40 nm particle size (TEM), 0.02 mg/mL in aqueous buffer, contains sodium citrate as stabilizer
Silver, dispersion, nanoparticles, 60 nm particle size (TEM), 0.02 mg/mL in aqueous buffer, contains sodium citrate as stabilizer
Silver, foil, not light tested, 25x25mm, thickness 0.0005mm, temporary acrylic support, 99.97%
Silver, foil, not light tested, 25x25mm, thickness 0.00075mm, temporary acrylic support, 99.97%
Silver, foil, not light tested, 50x50mm, thickness 0.0005mm, temporary acrylic support, 99.97%
Silver, foil, not light tested, 50x50mm, thickness 0.00075mm, temporary acrylic support, 99.97%
Silver, insulated wire, 10m, conductor diameter 0.025mm, insulation thickness 0.005mm, polyester insulation, 99.99%
Silver, insulated wire, 10m, conductor diameter 0.025mm, insulation thickness 0.005mm, polyurethane insulation, 99.99%
Silver, insulated wire, 10m, conductor diameter 0.05mm, insulation thickness 0.0075mm, polyester insulation, 99.99%
Silver, insulated wire, 10m, conductor diameter 0.075mm, insulation thickness 0.010mm, nylon insulation, 99.99%
Silver, insulated wire, 10m, conductor diameter 0.075mm, insulation thickness 0.010mm, PTFE (polytetrafluoroethylene) insulation, 99.99%
Silver, insulated wire, 10m, conductor diameter 0.125mm, insulation thickness 0.0125mm, polyester insulation, 99.99%
Silver, insulated wire, 10m, conductor diameter 0.125mm, insulation thickness 0.0125mm, polyimide insulation, 99.9%
Silver, insulated wire, 10m, conductor diameter 0.125mm, insulation thickness 0.015mm, PTFE (polytetrafluoroethylene) insulation, 99.99%
Silver, insulated wire, 10m, conductor diameter 0.25mm, insulation thickness 0.005mm, polyurethane insulation, 99.99%
Silver, insulated wire, 10m, conductor diameter 0.25mm, insulation thickness 0.015mm, epoxy insulation, 99.99%
Silver, insulated wire, 10m, conductor diameter 0.25mm, insulation thickness 0.023mm, polyester insulation, 99.99%
Silver, insulated wire, 10m, conductor diameter 0.25mm, insulation thickness 0.024mm, PTFE (polytetrafluoroethylene) insulation, 99.99%
Silver, insulated wire, 1m, conductor diameter 0.075mm, insulation thickness 0.010mm, nylon insulation, 99.99%
Silver, insulated wire, 1m, conductor diameter 0.075mm, insulation thickness 0.010mm, PTFE (polytetrafluoroethylene) insulation, 99.99%
Silver, insulated wire, 1m, conductor diameter 0.25mm, insulation thickness 0.005mm, polyurethane insulation, 99.99%
Silver, insulated wire, 20m, conductor diameter 0.025mm, insulation thickness 0.005mm, polyester insulation, 99.99%
Silver, insulated wire, 20m, conductor diameter 0.025mm, insulation thickness 0.005mm, polyurethane insulation, 99.99%
Silver, insulated wire, 20m, conductor diameter 0.05mm, insulation thickness 0.0075mm, polyester insulation, 99.99%
Silver, insulated wire, 20m, conductor diameter 0.075mm, insulation thickness 0.010mm, nylon insulation, 99.99%
Silver, insulated wire, 20m, conductor diameter 0.075mm, insulation thickness 0.010mm, PTFE (polytetrafluoroethylene) insulation, 99.99%
Silver, insulated wire, 20m, conductor diameter 0.125mm, insulation thickness 0.0125mm, polyester insulation, 99.99%
Silver, insulated wire, 20m, conductor diameter 0.125mm, insulation thickness 0.0125mm, polyimide insulation, 99.9%
Silver, insulated wire, 20m, conductor diameter 0.125mm, insulation thickness 0.015mm, PTFE (polytetrafluoroethylene) insulation, 99.99%
Silver, insulated wire, 20m, conductor diameter 0.25mm, insulation thickness 0.005mm, polyurethane insulation, 99.99%
Silver, insulated wire, 20m, conductor diameter 0.25mm, insulation thickness 0.015mm, epoxy insulation, 99.99%
Silver, insulated wire, 20m, conductor diameter 0.25mm, insulation thickness 0.023mm, polyester insulation, 99.99%
Silver, insulated wire, 20m, conductor diameter 0.25mm, insulation thickness 0.024mm, PTFE (polytetrafluoroethylene) insulation, 99.99%
Silver, insulated wire, 2m, conductor diameter 0.025mm, insulation thickness 0.005mm, polyester insulation, 99.99%
Silver, insulated wire, 2m, conductor diameter 0.025mm, insulation thickness 0.005mm, polyurethane insulation, 99.99%
Silver, insulated wire, 2m, conductor diameter 0.05mm, insulation thickness 0.0075mm, polyester insulation, 99.99%
Silver, insulated wire, 2m, conductor diameter 0.075mm, insulation thickness 0.010mm, nylon insulation, 99.99%
Silver, insulated wire, 2m, conductor diameter 0.075mm, insulation thickness 0.010mm, PTFE (polytetrafluoroethylene) insulation, 99.99%
Silver, insulated wire, 2m, conductor diameter 0.125mm, insulation thickness 0.0125mm, polyester insulation, 99.99%
Silver, insulated wire, 2m, conductor diameter 0.125mm, insulation thickness 0.015mm, PTFE (polytetrafluoroethylene) insulation, 99.99%
Silver, insulated wire, 2m, conductor diameter 0.25mm, insulation thickness 0.005mm, polyurethane insulation, 99.99%
Silver, insulated wire, 2m, conductor diameter 0.25mm, insulation thickness 0.015mm, epoxy insulation, 99.99%
Silver, insulated wire, 2m, conductor diameter 0.25mm, insulation thickness 0.023mm, polyester insulation, 99.99%
Silver, insulated wire, 2m, conductor diameter 0.25mm, insulation thickness 0.024mm, PTFE (polytetrafluoroethylene) insulation, 99.99%
Silver, insulated wire, 50m, conductor diameter 0.025mm, insulation thickness 0.005mm, polyester insulation, 99.99%
Silver, insulated wire, 50m, conductor diameter 0.025mm, insulation thickness 0.005mm, polyurethane insulation, 99.99%
Silver, insulated wire, 50m, conductor diameter 0.05mm, insulation thickness 0.0075mm, polyester insulation, 99.99%
Silver, insulated wire, 50m, conductor diameter 0.125mm, insulation thickness 0.0125mm, polyester insulation, 99.99%
Silver, insulated wire, 50m, conductor diameter 0.125mm, insulation thickness 0.0125mm, polyimide insulation, 99.9%
Silver, insulated wire, 50m, conductor diameter 0.125mm, insulation thickness 0.015mm, PTFE (polytetrafluoroethylene) insulation, 99.99%
Silver, insulated wire, 50m, conductor diameter 0.25mm, insulation thickness 0.015mm, epoxy insulation, 99.99%
Silver, insulated wire, 50m, conductor diameter 0.25mm, insulation thickness 0.023mm, polyester insulation, 99.99%
Silver, insulated wire, 50m, conductor diameter 0.25mm, insulation thickness 0.024mm, PTFE (polytetrafluoroethylene) insulation, 99.99%
Silver, insulated wire, 5m, conductor diameter 0.025mm, insulation thickness 0.005mm, polyester insulation, 99.99%
Silver, insulated wire, 5m, conductor diameter 0.025mm, insulation thickness 0.005mm, polyurethane insulation, 99.99%
Silver, insulated wire, 5m, conductor diameter 0.05mm, insulation thickness 0.0075mm, polyester insulation, 99.99%
Silver, insulated wire, 5m, conductor diameter 0.075mm, insulation thickness 0.010mm, nylon insulation, 99.99%
Silver, insulated wire, 5m, conductor diameter 0.075mm, insulation thickness 0.010mm, PTFE (polytetrafluoroethylene) insulation, 99.99%
Silver, insulated wire, 5m, conductor diameter 0.125mm, insulation thickness 0.0125mm, polyester insulation, 99.99%
Silver, insulated wire, 5m, conductor diameter 0.125mm, insulation thickness 0.0125mm, polyimide insulation, 99.9%
Silver, insulated wire, 5m, conductor diameter 0.125mm, insulation thickness 0.015mm, PTFE (polytetrafluoroethylene) insulation, 99.99%
Silver, insulated wire, 5m, conductor diameter 0.25mm, insulation thickness 0.005mm, polyurethane insulation, 99.99%
Silver, insulated wire, 5m, conductor diameter 0.25mm, insulation thickness 0.015mm, epoxy insulation, 99.99%
Silver, insulated wire, 5m, conductor diameter 0.25mm, insulation thickness 0.023mm, polyester insulation, 99.99%
Silver, insulated wire, 5m, conductor diameter 0.25mm, insulation thickness 0.024mm, PTFE (polytetrafluoroethylene) insulation, 99.99%
Silver, insulated wire, conductor diameter 0.04 mm, length 10 m, insulation thickness 0.007 mm
Silver, insulated wire, conductor diameter 0.04 mm, length 2 m, insulation thickness 0.007 mm
Silver, insulated wire, conductor diameter 0.04 mm, length 20 m, insulation thickness 0.007 mm
Silver, insulated wire, conductor diameter 0.04 mm, length 5 m, insulation thickness 0.007 mm
Silver, insulated wire, conductor diameter 0.04 mm, length 50 m, insulation thickness 0.007 mm
Silver, microfoil, disks, 10mm, thinness 0.1mum, specific density 110mug/cm2, permanent mylar 3.5mum support, 99.95+%
Silver, microfoil, disks, 10mm, thinness 0.25mum, specific density 262.3mug/cm2, permanent mylar 3.5mum support, 99.95+%
Silver, microfoil, disks, 10mm, thinness 0.5mum, specific density 522.6mug/cm2, permanent mylar 3.5mum support, 99.95+%
Silver, microfoil, disks, 10mm, thinness 1.0mum, specific density 1098mug/cm2, permanent mylar 3.5mum support, 99.95%
Silver, microfoil, disks, 25mm, thinness 0.1mum, specific density 110mug/cm2, permanent mylar 3.5mum support, 99.95+%
Silver, microfoil, disks, 25mm, thinness 0.25mum, specific density 262.3mug/cm2, permanent mylar 3.5mum support, 99.95+%
Silver, microfoil, disks, 25mm, thinness 0.5mum, specific density 522.6mug/cm2, permanent mylar 3.5mum support, 99.95+%
Silver, microfoil, disks, 25mm, thinness 1.0mum, specific density 1098mug/cm2, permanent mylar 3.5mum support, 99.95%
Silver, nanopowder, <100 nm particle size, contains PVP as dispersant, 99.5% trace metals basis
Silver, tube, 1000mm, outside diameter 0.7mm, inside diameter 0.3mm, wall thickness 0.2mm, as drawn, 99.95+%
Silver, tube, 1000mm, outside diameter 1.1mm, inside diameter 0.75mm, wall thickness 0.175mm, as drawn, 99.95+%
Silver, tube, 1000mm, outside diameter 1.75mm, inside diameter 1.55mm, wall thickness 0.1mm, as drawn, 99.95+%
Silver, tube, 1000mm, outside diameter 2.0mm, inside diameter 1.6mm, wall thickness 0.2mm, as drawn, 99.95+%
Silver, tube, 1000mm, outside diameter 2.8mm, inside diameter 2.5mm, wall thickness 0.15mm, as drawn, 99.95+%
Silver, tube, 1000mm, outside diameter 3.5mm, inside diameter 3.04mm, wall thickness 0.23mm, as drawn, 99.95+%
Silver, tube, 1000mm, outside diameter 4.65mm, inside diameter 4.15mm, wall thickness 0.25mm, as drawn, 99.95+%
Silver, tube, 1000mm, outside diameter 4.65mm, inside diameter 4.23mm, wall thickness 0.21mm, as drawn, 99.95+%
Silver, tube, 1000mm, outside diameter 5.0mm, inside diameter 4.5mm, wall thickness 0.25mm, as drawn, 99.95+%
Silver, tube, 1000mm, outside diameter 6.0mm, inside diameter 4mm, wall thickness 1.0mm, as drawn, 99.95+%
Silver, tube, 100mm, outside diameter 0.7mm, inside diameter 0.3mm, wall thickness 0.2mm, as drawn, 99.95+%
Silver, tube, 100mm, outside diameter 1.1mm, inside diameter 0.75mm, wall thickness 0.175mm, as drawn, 99.95+%
Silver, tube, 100mm, outside diameter 1.75mm, inside diameter 1.55mm, wall thickness 0.1mm, as drawn, 99.95+%
Silver, tube, 100mm, outside diameter 10mm, inside diameter 8mm, wall thickness 1.0mm, as drawn, 99.95+%
Silver, tube, 100mm, outside diameter 2.0mm, inside diameter 1.6mm, wall thickness 0.2mm, as drawn, 99.95+%
Silver, tube, 100mm, outside diameter 2.8mm, inside diameter 2.5mm, wall thickness 0.15mm, as drawn, 99.95+%
Silver, tube, 100mm, outside diameter 3.5mm, inside diameter 3.04mm, wall thickness 0.23mm, as drawn, 99.95+%
Silver, tube, 100mm, outside diameter 4.65mm, inside diameter 4.15mm, wall thickness 0.25mm, as drawn, 99.95+%
Silver, tube, 100mm, outside diameter 4.65mm, inside diameter 4.23mm, wall thickness 0.21mm, as drawn, 99.95+%
Silver, tube, 100mm, outside diameter 5.0mm, inside diameter 4.5mm, wall thickness 0.25mm, as drawn, 99.95+%
Silver, tube, 100mm, outside diameter 6.0mm, inside diameter 4mm, wall thickness 1.0mm, as drawn, 99.95+%
Silver, tube, 100mm, outside diameter 7.0mm, inside diameter 6mm, wall thickness 0.5mm, as drawn, 99.95+%
Silver, tube, 16.5mm, outside diameter 1.64mm, inside diameter 1.09mm, wall thickness 0.275mm, as drawn, 99.95+%
Silver, tube, 200mm, outside diameter 0.7mm, inside diameter 0.3mm, wall thickness 0.2mm, as drawn, 99.95+%
Silver, tube, 200mm, outside diameter 1.1mm, inside diameter 0.75mm, wall thickness 0.175mm, as drawn, 99.95+%
Silver, tube, 200mm, outside diameter 1.75mm, inside diameter 1.55mm, wall thickness 0.1mm, as drawn, 99.95+%
Silver, tube, 200mm, outside diameter 10mm, inside diameter 8mm, wall thickness 1.0mm, as drawn, 99.95+%
Silver, tube, 200mm, outside diameter 2.0mm, inside diameter 1.6mm, wall thickness 0.2mm, as drawn, 99.95+%
Silver, tube, 200mm, outside diameter 2.8mm, inside diameter 2.5mm, wall thickness 0.15mm, as drawn, 99.95+%
Silver, tube, 200mm, outside diameter 3.5mm, inside diameter 3.04mm, wall thickness 0.23mm, as drawn, 99.95+%
Silver, tube, 200mm, outside diameter 4.65mm, inside diameter 4.15mm, wall thickness 0.25mm, as drawn, 99.95+%
Silver, tube, 200mm, outside diameter 4.65mm, inside diameter 4.23mm, wall thickness 0.21mm, as drawn, 99.95+%
Silver, tube, 200mm, outside diameter 5.0mm, inside diameter 4.5mm, wall thickness 0.25mm, as drawn, 99.95+%
Silver, tube, 200mm, outside diameter 6.0mm, inside diameter 4mm, wall thickness 1.0mm, as drawn, 99.95+%
Silver, tube, 200mm, outside diameter 7.0mm, inside diameter 6mm, wall thickness 0.5mm, as drawn, 99.95+%
Silver, tube, 500mm, outside diameter 0.7mm, inside diameter 0.3mm, wall thickness 0.2mm, as drawn, 99.95+%
Silver, tube, 500mm, outside diameter 1.1mm, inside diameter 0.75mm, wall thickness 0.175mm, as drawn, 99.95+%
Silver, tube, 500mm, outside diameter 1.75mm, inside diameter 1.55mm, wall thickness 0.1mm, as drawn, 99.95+%
Silver, tube, 500mm, outside diameter 10mm, inside diameter 8mm, wall thickness 1.0mm, as drawn, 99.95+%
Silver, tube, 500mm, outside diameter 2.0mm, inside diameter 1.6mm, wall thickness 0.2mm, as drawn, 99.95+%
Silver, tube, 500mm, outside diameter 2.8mm, inside diameter 2.5mm, wall thickness 0.15mm, as drawn, 99.95+%
Silver, tube, 500mm, outside diameter 3.5mm, inside diameter 3.04mm, wall thickness 0.23mm, as drawn, 99.95+%
Silver, tube, 500mm, outside diameter 4.65mm, inside diameter 4.15mm, wall thickness 0.25mm, as drawn, 99.95+%
Silver, tube, 500mm, outside diameter 4.65mm, inside diameter 4.23mm, wall thickness 0.21mm, as drawn, 99.95+%
Silver, tube, 500mm, outside diameter 5.0mm, inside diameter 4.5mm, wall thickness 0.25mm, as drawn, 99.95+%
Silver, tube, 500mm, outside diameter 6.0mm, inside diameter 4mm, wall thickness 1.0mm, as drawn, 99.95+%
Silver, tube, 500mm, outside diameter 7.0mm, inside diameter 6mm, wall thickness 0.5mm, as drawn, 99.95+%
Silver, tube, 50mm, outside diameter 10mm, inside diameter 8mm, wall thickness 1.0mm, as drawn, 99.95+%
Silver, tube, rectangular section, 100mm, outside diameter 8.0x5.0mm, inside diameter 6x3mm, wall thickness 1mm, 99.95+%
Silver, tube, rectangular section, 200mm, outside diameter 8.0x5.0mm, inside diameter 6x3mm, wall thickness 1mm, 99.95+%
Silver, tube, rectangular section, 500mm, outside diameter 8.0x5.0mm, inside diameter 6x3mm, wall thickness 1mm, 99.95+%

> <TPSA>
0

> <TotalAidCount>
1

> <TotalFormalCharge>
0

> <database>
PubChem Compound

> <matchingCount>
176

> <primaryID>
23954

> <queryTranslation>
7628[CompoundID] OR 244[CompoundID] OR 25059[CompoundID] OR 7618[CompoundID] OR 7641[CompoundID] OR 5053[CompoundID] OR 637511[CompoundID] OR 7714[CompoundID] OR 7762[CompoundID] OR 25429[CompoundID]
OR 8842[CompoundID] OR 7794[CompoundID] OR 637566[CompoundID] OR 7843[CompoundID] OR 174[CompoundID] OR 7870[CompoundID] OR 86102[CompoundID] OR 7888[CompoundID] OR 7896[CompoundID] OR 1140[CompoundID
] OR 8042[CompoundID] OR 8058[CompoundID] OR 8078[CompoundID] OR 8087[CompoundID] OR 8117[CompoundID] OR 8133[CompoundID] OR 115224[CompoundID] OR 8175[CompoundID] OR 8194[CompoundID] OR 445639[Compou
ndID] OR 4944[CompoundID] OR 8294[CompoundID] OR 93541[CompoundID] OR 8360[CompoundID] OR 8363[CompoundID] OR 656612[CompoundID] OR 125098[CompoundID] OR 3352[CompoundID] OR 3303913[CompoundID] OR 648
05[CompoundID] OR 31200[CompoundID] OR 1712058[CompoundID] OR 31236[CompoundID] OR 31239[CompoundID] OR 31265[CompoundID] OR 31266[CompoundID] OR 31276[CompoundID] OR 6950273[CompoundID] OR 518659[Com
poundID] OR 14896[CompoundID] OR 14798[CompoundID] OR 14829[CompoundID] OR 14830[CompoundID] OR 8635[CompoundID] OR 23266[CompoundID] OR 4284[CompoundID] OR 8693[CompoundID] OR 22311[CompoundID] OR 87
59[CompoundID] OR 8785[CompoundID] OR 2723810[CompoundID] OR 8857[CompoundID] OR 3893[CompoundID] OR 9936739[CompoundID] OR 516892[CompoundID] OR 5430[CompoundID] OR 9017[CompoundID] OR 15433[Compound
ID] OR 107720[CompoundID] OR 9552081[CompoundID] OR 164825[CompoundID] OR 10275455[CompoundID] OR 16666[CompoundID] OR 9839306[CompoundID] OR 5282227[CompoundID] OR 23676745[CompoundID] OR 32881[Compo
undID] OR 91581[CompoundID] OR 39800[CompoundID] OR 33344[CompoundID] OR 15962220[CompoundID] OR 33528[CompoundID] OR 5365075[CompoundID] OR 62829[CompoundID] OR 162381[CompoundID] OR 517202[CompoundI
D] OR 6433353[CompoundID] OR 2730[CompoundID] OR 5372405[CompoundID] OR 36081[CompoundID] OR 3120[CompoundID] OR 3017[CompoundID] OR 2969[CompoundID] OR 18827[CompoundID] OR 19518[CompoundID] OR 19658
[CompoundID] OR 38283[CompoundID] OR 2758[CompoundID] OR 10112[CompoundID] OR 10340[CompoundID] OR 712[CompoundID] OR 5794[CompoundID] OR 3347[CompoundID] OR 104150[CompoundID] OR 2912[CompoundID] OR
2450[CompoundID] OR 40326[CompoundID] OR 40585[CompoundID] OR 517055[CompoundID] OR 10913[CompoundID] OR 108242[CompoundID] OR 62097[CompoundID] OR 41679[CompoundID] OR 54680676[CompoundID] OR 62118[C
ompoundID] OR 753[CompoundID] OR 1030[CompoundID] OR 23673837[CompoundID] OR 54678504[CompoundID] OR 11442[CompoundID] OR 11463[CompoundID] OR 22230[CompoundID] OR 440917[CompoundID] OR 6054[CompoundI
D] OR 43234[CompoundID] OR 22629[CompoundID] OR 3039[CompoundID] OR 2735067[CompoundID] OR 6144[CompoundID] OR 702[CompoundID] OR 284[CompoundID] OR 176[CompoundID] OR 91688[CompoundID] OR 22947[Compo
undID] OR 47445[CompoundID] OR 1711973[CompoundID] OR 243[CompoundID] OR 10342051[CompoundID] OR 5281875[CompoundID] OR 3776[CompoundID] OR 6224[CompoundID] OR 104926[CompoundID] OR 8755[CompoundID] O
R 338[CompoundID] OR 123622[CompoundID] OR 23954[CompoundID] OR 6334[CompoundID] OR 2537[CompoundID] OR 24261[CompoundID] OR 23665760[CompoundID] OR 83975[CompoundID] OR 784[CompoundID] OR 24437[Compo
undID] OR 5360315[CompoundID] OR 311[CompoundID] OR 6549[CompoundID] OR 107689[CompoundID] OR 17100[CompoundID] OR 24976875[CompoundID] OR 6654[CompoundID] OR 71245[CompoundID] OR 6442842[CompoundID]
OR 62334[CompoundID] OR 54698175[CompoundID] OR 6328154[CompoundID] OR 24762[CompoundID] OR 440950[CompoundID] OR 7017[CompoundID] OR 5281873[CompoundID] OR 323[CompoundID] OR 5281167[CompoundID] OR 7
175[CompoundID] OR 7292[CompoundID] OR 6335613[CompoundID] OR 7456[CompoundID] OR 7462[CompoundID]

> <resultIndex>
84

> <resultRange>
1-176

> <textQuery>
7628,244,25059,7618,7641,5053,637511,7714,7762,25429,8842,7794,637566,7843,174,7870,86102,7888,7896,1140,8042,8058,8078,8087,8117,8133,115224,8175,8194,445639,4944,8294,93541,8360,8363,656612,125098,3
352,3303913,64805,31200,1712058,31236,31239,31265,31266,31276,6950273,518659,14896,14798,14829,14830,8635,23266,4284,8693,22311,8759,8785,2723810,8857,3893,9936739,516892,5430,9017,15433,107720,955208
1,164825,10275455,16666,9839306,5282227,23676745,32881,91581,39800,33344,15962220,33528,5365075,62829,162381,517202,6433353,2730,5372405,36081,3120,3017,2969,18827,19518,19658,38283,2758,10112,10340,7
12,5794,3347,104150,2912,2450,40326,40585,517055,10913,108242,62097,41679,54680676,62118,753,1030,23673837,54678504,11442,11463,22230,440917,6054,43234,22629,3039,2735067,6144,702,284,176,91688,22947,
47445,1711973,243,10342051,5281875,3776,6224,104926,8755,338,123622,23954,6334,2537,24261,23665760,83975,784,24437,5360315,311,6549,107689,17100,24976875,6654,71245,6442842,62334,54698175,6328154,2476
2,440950,7017,5281873,323,5281167,7175,7292,6335613,7456,7462

$$$$
23,266
  SciTegic10191915303D

  4  3  0  0  0  0            999 V2000
   -0.6380    1.5460    0.0000 O   0  5
   -0.0920    0.0000    0.0000 Si  0  0
   -0.6380   -1.5460    0.0000 O   0  5
    1.3680    0.0000    0.0000 O   0  0
  1  2  1  0
  2  3  1  0
  2  4  2  0
M  CHG  2   1  -1   3  -1
M  END
> <Name>
23,266

> <OBJECTID>
9223372397635371019

> <ActiveAidCount>
0

> <AtomChiralCount>
0

> <AtomChiralDefCount>
0

> <AtomChiralUndefCount>
0

> <BondChiralCount>
0

> <BondChiralDefCount>
0

> <BondChiralUndefCount>
0

> <CID>
23266

> <CanonicalSmiles>
[O-][Si](=O)[O-].[Na+].[Na+]

> <Complexity>
18.8

> <CovalentUnitCount>
3

> <CreateDate>
2005/08/08 00:00

> <HeavyAtomCount>
6

> <HydrogenBondAcceptorCount>
3

> <HydrogenBondDonorCount>
0

> <IUPACName>
disodium;dioxido(oxo)silane

> <InChI>
InChI=1S/2Na.O3Si/c;;1-4(2)3/q2*+1;-2

> <InChIKey>
NTHWMYGWWRZVTN-UHFFFAOYSA-N

> <IsomericSmiles>
[O-][Si](=O)[O-].[Na+].[Na+]

> <IsotopeAtomCount>
0

> <MeSHHeading>
sodium metasilicate

> <MeSHTerm>
sodium metasilicate nonahydrate
monosodium metasilicate
sodium metasilicate

> <MolecularFormula>
Na2O3Si

> <MolecularWeight>
122.063

> <RotatableBondCount>
0

> <Smiles>
[O-][Si](=O)[O-].[Na+].[Na+]

> <SourceCategory>
Legacy Depositors
Chemical Vendors
Research and Development
Curation Efforts
Governmental Organizations
Subscription Services
Journal Publishers
NIH Initiatives

> <Synonym>
Sodium metasilicate
SODIUM SILICATE
Waterglass
6834-92-0
1344-09-8
Water glass
Sodium siliconate
Sodium polysilicate
Disodium metasilicate
Sodium sesquisilicate
Sodium silicate glass
Sodium silicate solution
Sodium water glass
Silicic acid, sodium salt
Britesil
Crystamet
Orthosil
Sikalon
Silican
Carsil
Dryseq
Soluble glass
Agrosil S
Agrosil LR
Portil A
Silica E
Silica K
Silica N
Silica R
Pyramid 1
Pyramid 8
Simet A
Carsil (silicate)
Britesil H 20
Britesil H 24
Metso beads, drymet
Disodium monosilicate
Dupont 26
Metso pentabead 20
Metso 20
Metso 99
Metso beads 2048
Caswell No. 792
Sodium metasilicate, anhydrous
49FG
disodium oxosilanediolate
Silicic acid (H2SiO3), disodium salt
as Bond 1001
Disodium silicate
L 96 (salt)
HK 30 (van)
Sodium silicate (Na2SiO3)
HSDB 753
Sodium metasilicate (Na2SiO3)
HSDB 5028
UNII-052612U92L
EINECS 215-687-4
EINECS 229-912-9
DP 222
MFCD00003492
disodium dioxido(oxo)silane
EPA Pesticide Chemical Code 072603
Silicic acid, disodium salt
Sodium metasilicate anhydrous
Silicic acid (H2SiO3) , disodium salt
N 38
Q 70
CHEBI:60720
SOdium silicate solution, reagent grade
052612U92L
Silicic acid (H2SiO3), sodium salt (1:2)
Sodium metasilicate, puriss.
B-W
Silicon, Reference Standard Solution
UNII-IJF18F77L3
sodium meta-silicate
Sodium silicon oxide
Na2SiO3
SODIUM-m-SILICATE
AC1L2LZG
AC1NPT2S
Sodium trisilicate solution
Epitope ID:158534
EC 215-687-4
EC 229-912-9
AC1Q1UQ0
disodium oxosilanebis(olate)
IJF18F77L3
DTXSID7029669
CTK8G3162
NTHWMYGWWRZVTN-UHFFFAOYSA-N
AKOS024429002
LS-1581
LS-3222
RL04612
KS-0000190I
s15025
Silicic acid (CH2SiO3), disodium salt
AN-21286
AN-49132
dipotassium oxo-$l^{5}-silanebis(olate)
P-84
S580
I14-115094
Silicic acid (H2SiO3), disodium salt, pentahydrate (8CI,9CI)
Sodium trisilicate, >=18% Na (as Na2O) basis, >=60% Si (as SiO2) basis, powder
84992-49-4

> <TPSA>
63.2

> <TotalAidCount>
0

> <TotalFormalCharge>
0

> <database>
PubChem Compound

> <matchingCount>
176

> <primaryID>
23266

> <queryTranslation>
7628[CompoundID] OR 244[CompoundID] OR 25059[CompoundID] OR 7618[CompoundID] OR 7641[CompoundID] OR 5053[CompoundID] OR 637511[CompoundID] OR 7714[CompoundID] OR 7762[CompoundID] OR 25429[CompoundID]
OR 8842[CompoundID] OR 7794[CompoundID] OR 637566[CompoundID] OR 7843[CompoundID] OR 174[CompoundID] OR 7870[CompoundID] OR 86102[CompoundID] OR 7888[CompoundID] OR 7896[CompoundID] OR 1140[CompoundID
] OR 8042[CompoundID] OR 8058[CompoundID] OR 8078[CompoundID] OR 8087[CompoundID] OR 8117[CompoundID] OR 8133[CompoundID] OR 115224[CompoundID] OR 8175[CompoundID] OR 8194[CompoundID] OR 445639[Compou
ndID] OR 4944[CompoundID] OR 8294[CompoundID] OR 93541[CompoundID] OR 8360[CompoundID] OR 8363[CompoundID] OR 656612[CompoundID] OR 125098[CompoundID] OR 3352[CompoundID] OR 3303913[CompoundID] OR 648
05[CompoundID] OR 31200[CompoundID] OR 1712058[CompoundID] OR 31236[CompoundID] OR 31239[CompoundID] OR 31265[CompoundID] OR 31266[CompoundID] OR 31276[CompoundID] OR 6950273[CompoundID] OR 518659[Com
poundID] OR 14896[CompoundID] OR 14798[CompoundID] OR 14829[CompoundID] OR 14830[CompoundID] OR 8635[CompoundID] OR 23266[CompoundID] OR 4284[CompoundID] OR 8693[CompoundID] OR 22311[CompoundID] OR 87
59[CompoundID] OR 8785[CompoundID] OR 2723810[CompoundID] OR 8857[CompoundID] OR 3893[CompoundID] OR 9936739[CompoundID] OR 516892[CompoundID] OR 5430[CompoundID] OR 9017[CompoundID] OR 15433[Compound
ID] OR 107720[CompoundID] OR 9552081[CompoundID] OR 164825[CompoundID] OR 10275455[CompoundID] OR 16666[CompoundID] OR 9839306[CompoundID] OR 5282227[CompoundID] OR 23676745[CompoundID] OR 32881[Compo
undID] OR 91581[CompoundID] OR 39800[CompoundID] OR 33344[CompoundID] OR 15962220[CompoundID] OR 33528[CompoundID] OR 5365075[CompoundID] OR 62829[CompoundID] OR 162381[CompoundID] OR 517202[CompoundI
D] OR 6433353[CompoundID] OR 2730[CompoundID] OR 5372405[CompoundID] OR 36081[CompoundID] OR 3120[CompoundID] OR 3017[CompoundID] OR 2969[CompoundID] OR 18827[CompoundID] OR 19518[CompoundID] OR 19658
[CompoundID] OR 38283[CompoundID] OR 2758[CompoundID] OR 10112[CompoundID] OR 10340[CompoundID] OR 712[CompoundID] OR 5794[CompoundID] OR 3347[CompoundID] OR 104150[CompoundID] OR 2912[CompoundID] OR
2450[CompoundID] OR 40326[CompoundID] OR 40585[CompoundID] OR 517055[CompoundID] OR 10913[CompoundID] OR 108242[CompoundID] OR 62097[CompoundID] OR 41679[CompoundID] OR 54680676[CompoundID] OR 62118[C
ompoundID] OR 753[CompoundID] OR 1030[CompoundID] OR 23673837[CompoundID] OR 54678504[CompoundID] OR 11442[CompoundID] OR 11463[CompoundID] OR 22230[CompoundID] OR 440917[CompoundID] OR 6054[CompoundI
D] OR 43234[CompoundID] OR 22629[CompoundID] OR 3039[CompoundID] OR 2735067[CompoundID] OR 6144[CompoundID] OR 702[CompoundID] OR 284[CompoundID] OR 176[CompoundID] OR 91688[CompoundID] OR 22947[Compo
undID] OR 47445[CompoundID] OR 1711973[CompoundID] OR 243[CompoundID] OR 10342051[CompoundID] OR 5281875[CompoundID] OR 3776[CompoundID] OR 6224[CompoundID] OR 104926[CompoundID] OR 8755[CompoundID] O
R 338[CompoundID] OR 123622[CompoundID] OR 23954[CompoundID] OR 6334[CompoundID] OR 2537[CompoundID] OR 24261[CompoundID] OR 23665760[CompoundID] OR 83975[CompoundID] OR 784[CompoundID] OR 24437[Compo
undID] OR 5360315[CompoundID] OR 311[CompoundID] OR 6549[CompoundID] OR 107689[CompoundID] OR 17100[CompoundID] OR 24976875[CompoundID] OR 6654[CompoundID] OR 71245[CompoundID] OR 6442842[CompoundID]
OR 62334[CompoundID] OR 54698175[CompoundID] OR 6328154[CompoundID] OR 24762[CompoundID] OR 440950[CompoundID] OR 7017[CompoundID] OR 5281873[CompoundID] OR 323[CompoundID] OR 5281167[CompoundID] OR 7
175[CompoundID] OR 7292[CompoundID] OR 6335613[CompoundID] OR 7456[CompoundID] OR 7462[CompoundID]

> <resultIndex>
85

> <resultRange>
1-176

> <textQuery>
7628,244,25059,7618,7641,5053,637511,7714,7762,25429,8842,7794,637566,7843,174,7870,86102,7888,7896,1140,8042,8058,8078,8087,8117,8133,115224,8175,8194,445639,4944,8294,93541,8360,8363,656612,125098,3
352,3303913,64805,31200,1712058,31236,31239,31265,31266,31276,6950273,518659,14896,14798,14829,14830,8635,23266,4284,8693,22311,8759,8785,2723810,8857,3893,9936739,516892,5430,9017,15433,107720,955208
1,164825,10275455,16666,9839306,5282227,23676745,32881,91581,39800,33344,15962220,33528,5365075,62829,162381,517202,6433353,2730,5372405,36081,3120,3017,2969,18827,19518,19658,38283,2758,10112,10340,7
12,5794,3347,104150,2912,2450,40326,40585,517055,10913,108242,62097,41679,54680676,62118,753,1030,23673837,54678504,11442,11463,22230,440917,6054,43234,22629,3039,2735067,6144,702,284,176,91688,22947,
47445,1711973,243,10342051,5281875,3776,6224,104926,8755,338,123622,23954,6334,2537,24261,23665760,83975,784,24437,5360315,311,6549,107689,17100,24976875,6654,71245,6442842,62334,54698175,6328154,2476
2,440950,7017,5281873,323,5281167,7175,7292,6335613,7456,7462

$$$$
22,947
  SciTegic10191915303D

 25 25  0  0  0  0            999 V2000
    3.4750   -1.3420   -0.0110 O   0  0
    3.0590    0.0050   -0.0110 C   0  0
    1.6000    0.0640   -0.0110 N   0  0
    0.8050    0.2560    1.1160 C   0  0
    1.2110    0.4000    2.2460 O   0  0
   -0.5350    0.2560    0.7320 N   0  0
   -0.6680    0.0530   -0.7120 C   0  0
    0.7840   -0.0630   -1.1490 C   0  0
    1.1980   -0.2360   -2.2720 O   0  0
   -1.4230   -1.2340   -1.0210 C   0  0
   -1.3350    1.2500   -1.3800 C   0  0
   -1.6720    0.4320    1.6320 C   0  0
   -1.7950   -0.7010    2.4620 O   0  0
    4.4450   -1.3420   -0.0110 H   0  0
    3.4420    0.4780    0.8940 H   0  0
    3.4420    0.4780   -0.9150 H   0  0
   -0.9610   -2.1000   -0.5470 H   0  0
   -1.4500   -1.4170   -2.0950 H   0  0
   -2.4530   -1.1710   -0.6680 H   0  0
   -0.8500    2.1790   -1.0790 H   0  0
   -1.2900    1.1610   -2.4650 H   0  0
   -2.3850    1.3150   -1.0940 H   0  0
   -2.5870    0.5260    1.0480 H   0  0
   -1.5000    1.3010    2.2680 H   0  0
   -2.5560   -0.5490    3.0430 H   0  0
  1  2  1  0
  2  3  1  0
  3  4  1  0
  3  8  1  0
  4  5  2  0
  4  6  1  0
  6  7  1  0
  6 12  1  0
  7  8  1  0
  7 10  1  0
  7 11  1  0
  8  9  2  0
 12 13  1  0
  1 14  1  0
  2 15  1  0
  2 16  1  0
 10 17  1  0
 10 18  1  0
 10 19  1  0
 11 20  1  0
 11 21  1  0
 11 22  1  0
 12 23  1  0
 12 24  1  0
 13 25  1  0
M  END
> <Name>
22,947

> <OBJECTID>
9223372401930338315

> <ActiveAidCount>
0

> <AtomChiralCount>
0

> <AtomChiralDefCount>
0

> <AtomChiralUndefCount>
0

> <BondChiralCount>
0

> <BondChiralDefCount>
0

> <BondChiralUndefCount>
0

> <CID>
22947

> <CanonicalSmiles>
CC1(C(=O)N(C(=O)N1CO)CO)C

> <Complexity>
251

> <CovalentUnitCount>
1

> <CreateDate>
2005/08/08 00:00

> <HeavyAtomCount>
13

> <HydrogenBondAcceptorCount>
4

> <HydrogenBondDonorCount>
2

> <IUPACName>
1,3-bis(hydroxymethyl)-5,5-dimethylimidazolidine-2,4-dione

> <InChI>
InChI=1S/C7H12N2O4/c1-7(2)5(12)8(3-10)6(13)9(7)4-11/h10-11H,3-4H2,1-2H3

> <InChIKey>
WSDISUOETYTPRL-UHFFFAOYSA-N

> <IsomericSmiles>
CC1(C(=O)N(C(=O)N1CO)CO)C

> <IsotopeAtomCount>
0

> <MeSHHeading>
1,3-dimethylol-5,5-dimethylhydantoin

> <MeSHTerm>
DMDM hydantoin
1,3-dimethylol-5,5-dimethylhydantoin

> <MolecularFormula>
C7H12N2O4

> <MolecularWeight>
188.18

> <RotatableBondCount>
2

> <Smiles>
OCN1C(=O)C(C)(C)N(CO)C1=O

> <SourceCategory>
Chemical Vendors
Legacy Depositors
Research and Development
Curation Efforts
Governmental Organizations
Subscription Services
Journal Publishers

> <Synonym>
6440-58-0
1,3-Bis(hydroxymethyl)-5,5-dimethylimidazolidine-2,4-dione
DMDM Hydantoin
Dmdmh
Glydant
Dimethyloldimethyl hydantoin
1,3-Dimethylol-5,5-dimethylhydantoin
1,3-Bis(hydroxymethyl)-5,5-dimethylhydantoin
Dantoin-DMDMH
Glycoserve-DMDMH
Dantoin dmdmh 55
Dmdmh 55
Caswell No. 273AB
Dimethylol-5,5-dimethylhydantoin
dimethyloldimethylhydantoin
UNII-BYR0546TOW
2,4-Imidazolidinedione, 1,3-bis(hydroxymethyl)-5,5-dimethyl-
EINECS 229-222-8
EPA Pesticide Chemical Code 115501
BRN 0882348
BYR0546TOW
1,3-Bis(hydroxymethyl)-5,5-dimethyl-2,4-imidazolidinedione
1,3-Di(hydroxymethyl)-5,5-dimethylhydantoin
AK114999
1,3-Dihydroxylmethyl-5,5-dimethylhydantoin
Hydantoin, 1,3-bis(hydroxymethyl)-5,5-dimethyl-
W-104844
1,3-bis(hydroxymethyl)-5,5-dimethyl-1,3-diazolidine-2,4-dione
HSDB 7488
PubChem23219
AC1L2LCR
EC 229-222-8
dimethylol dimethyl hydantoin
DSSTox_CID_15217
DSSTox_GSID_35217
SCHEMBL69185
1,3-DIHYDROXYMETHYL-5,5-DIMETHYLHYDANTOIN
DTXSID8035217
CTK8A5846
KS-00000LYL
WSDISUOETYTPRL-UHFFFAOYSA-N
ZINC2033948
ZX-AT021840
Tox21_303842
FCH921853
KM0857
MFCD00467199
SBB055875
AKOS006345746
CS-W021276
MCULE-7284808609
OR14987
1,3-dimethylol-5,5-dimethyl hydantoin
bis(hydroxymethyl)-5,5-dimethylhydantoin
NCGC00356947-01
AJ-32967
AN-19327
AS-10924
CC-27038
LS-76005
SC-15332
CAS-6440-58-0
AX8053852
FT-0606699
ST24036762
ST50950036
1,3-DIMETHYLOL-5,5-DIMETHYL-HYDANTOIN
440B580
C-34400
I14-8473
Bis(hydroxymethyl)-5,5-dimethyl-2,4-imidazolidinedione
1,3-Bis (hydroxymethyl)-5,5-dimethylimidazolidine-2,4-dione
1,3-bis(hydroxymethyl)-5,5-dimethyl-imidazolidine-2,4-dione

> <TPSA>
81.1

> <TotalAidCount>
117

> <TotalFormalCharge>
0

> <XLogP>
-0.2

> <database>
PubChem Compound

> <matchingCount>
176

> <primaryID>
22947

> <queryTranslation>
7628[CompoundID] OR 244[CompoundID] OR 25059[CompoundID] OR 7618[CompoundID] OR 7641[CompoundID] OR 5053[CompoundID] OR 637511[CompoundID] OR 7714[CompoundID] OR 7762[CompoundID] OR 25429[CompoundID]
OR 8842[CompoundID] OR 7794[CompoundID] OR 637566[CompoundID] OR 7843[CompoundID] OR 174[CompoundID] OR 7870[CompoundID] OR 86102[CompoundID] OR 7888[CompoundID] OR 7896[CompoundID] OR 1140[CompoundID
] OR 8042[CompoundID] OR 8058[CompoundID] OR 8078[CompoundID] OR 8087[CompoundID] OR 8117[CompoundID] OR 8133[CompoundID] OR 115224[CompoundID] OR 8175[CompoundID] OR 8194[CompoundID] OR 445639[Compou
ndID] OR 4944[CompoundID] OR 8294[CompoundID] OR 93541[CompoundID] OR 8360[CompoundID] OR 8363[CompoundID] OR 656612[CompoundID] OR 125098[CompoundID] OR 3352[CompoundID] OR 3303913[CompoundID] OR 648
05[CompoundID] OR 31200[CompoundID] OR 1712058[CompoundID] OR 31236[CompoundID] OR 31239[CompoundID] OR 31265[CompoundID] OR 31266[CompoundID] OR 31276[CompoundID] OR 6950273[CompoundID] OR 518659[Com
poundID] OR 14896[CompoundID] OR 14798[CompoundID] OR 14829[CompoundID] OR 14830[CompoundID] OR 8635[CompoundID] OR 23266[CompoundID] OR 4284[CompoundID] OR 8693[CompoundID] OR 22311[CompoundID] OR 87
59[CompoundID] OR 8785[CompoundID] OR 2723810[CompoundID] OR 8857[CompoundID] OR 3893[CompoundID] OR 9936739[CompoundID] OR 516892[CompoundID] OR 5430[CompoundID] OR 9017[CompoundID] OR 15433[Compound
ID] OR 107720[CompoundID] OR 9552081[CompoundID] OR 164825[CompoundID] OR 10275455[CompoundID] OR 16666[CompoundID] OR 9839306[CompoundID] OR 5282227[CompoundID] OR 23676745[CompoundID] OR 32881[Compo
undID] OR 91581[CompoundID] OR 39800[CompoundID] OR 33344[CompoundID] OR 15962220[CompoundID] OR 33528[CompoundID] OR 5365075[CompoundID] OR 62829[CompoundID] OR 162381[CompoundID] OR 517202[CompoundI
D] OR 6433353[CompoundID] OR 2730[CompoundID] OR 5372405[CompoundID] OR 36081[CompoundID] OR 3120[CompoundID] OR 3017[CompoundID] OR 2969[CompoundID] OR 18827[CompoundID] OR 19518[CompoundID] OR 19658
[CompoundID] OR 38283[CompoundID] OR 2758[CompoundID] OR 10112[CompoundID] OR 10340[CompoundID] OR 712[CompoundID] OR 5794[CompoundID] OR 3347[CompoundID] OR 104150[CompoundID] OR 2912[CompoundID] OR
2450[CompoundID] OR 40326[CompoundID] OR 40585[CompoundID] OR 517055[CompoundID] OR 10913[CompoundID] OR 108242[CompoundID] OR 62097[CompoundID] OR 41679[CompoundID] OR 54680676[CompoundID] OR 62118[C
ompoundID] OR 753[CompoundID] OR 1030[CompoundID] OR 23673837[CompoundID] OR 54678504[CompoundID] OR 11442[CompoundID] OR 11463[CompoundID] OR 22230[CompoundID] OR 440917[CompoundID] OR 6054[CompoundI
D] OR 43234[CompoundID] OR 22629[CompoundID] OR 3039[CompoundID] OR 2735067[CompoundID] OR 6144[CompoundID] OR 702[CompoundID] OR 284[CompoundID] OR 176[CompoundID] OR 91688[CompoundID] OR 22947[Compo
undID] OR 47445[CompoundID] OR 1711973[CompoundID] OR 243[CompoundID] OR 10342051[CompoundID] OR 5281875[CompoundID] OR 3776[CompoundID] OR 6224[CompoundID] OR 104926[CompoundID] OR 8755[CompoundID] O
R 338[CompoundID] OR 123622[CompoundID] OR 23954[CompoundID] OR 6334[CompoundID] OR 2537[CompoundID] OR 24261[CompoundID] OR 23665760[CompoundID] OR 83975[CompoundID] OR 784[CompoundID] OR 24437[Compo
undID] OR 5360315[CompoundID] OR 311[CompoundID] OR 6549[CompoundID] OR 107689[CompoundID] OR 17100[CompoundID] OR 24976875[CompoundID] OR 6654[CompoundID] OR 71245[CompoundID] OR 6442842[CompoundID]
OR 62334[CompoundID] OR 54698175[CompoundID] OR 6328154[CompoundID] OR 24762[CompoundID] OR 440950[CompoundID] OR 7017[CompoundID] OR 5281873[CompoundID] OR 323[CompoundID] OR 5281167[CompoundID] OR 7
175[CompoundID] OR 7292[CompoundID] OR 6335613[CompoundID] OR 7456[CompoundID] OR 7462[CompoundID]

> <resultIndex>
86

> <resultRange>
1-176

> <textQuery>
7628,244,25059,7618,7641,5053,637511,7714,7762,25429,8842,7794,637566,7843,174,7870,86102,7888,7896,1140,8042,8058,8078,8087,8117,8133,115224,8175,8194,445639,4944,8294,93541,8360,8363,656612,125098,3
352,3303913,64805,31200,1712058,31236,31239,31265,31266,31276,6950273,518659,14896,14798,14829,14830,8635,23266,4284,8693,22311,8759,8785,2723810,8857,3893,9936739,516892,5430,9017,15433,107720,955208
1,164825,10275455,16666,9839306,5282227,23676745,32881,91581,39800,33344,15962220,33528,5365075,62829,162381,517202,6433353,2730,5372405,36081,3120,3017,2969,18827,19518,19658,38283,2758,10112,10340,7
12,5794,3347,104150,2912,2450,40326,40585,517055,10913,108242,62097,41679,54680676,62118,753,1030,23673837,54678504,11442,11463,22230,440917,6054,43234,22629,3039,2735067,6144,702,284,176,91688,22947,
47445,1711973,243,10342051,5281875,3776,6224,104926,8755,338,123622,23954,6334,2537,24261,23665760,83975,784,24437,5360315,311,6549,107689,17100,24976875,6654,71245,6442842,62334,54698175,6328154,2476
2,440950,7017,5281873,323,5281167,7175,7292,6335613,7456,7462

$$$$
22,629
  SciTegic10191915303D

 34 34  0  0  0  0            999 V2000
   -0.0040   -0.9900   -0.6890 O   0  0
   -1.4850   -0.1290   -2.1350 O   0  0
   -3.9160   -1.3070   -1.4670 O   0  0
    2.2400    1.7460    0.6350 C   0  0
    1.2460    2.6990    1.2990 C   0  0
    1.6620    0.3460    0.4240 C   0  0
    1.8710    4.0510    1.6490 C   0  0
    0.5120    0.3280   -0.5840 C   0  0
    2.8260    3.9690    2.8400 C   0  0
   -1.0820   -1.0530   -1.4670 C   0  0
   -1.7930   -2.3670   -1.4670 C   0  0
   -3.2010   -2.4160   -1.4670 C   0  0
   -1.0470   -3.5610   -1.4670 C   0  0
   -3.8560   -3.6620   -1.4670 C   0  0
   -1.7050   -4.8030   -1.4670 C   0  0
   -3.1100   -4.8540   -1.4670 C   0  0
   -3.4810   -0.4650   -1.2790 H   0  0
    3.1680    1.6970    1.2030 H   0  0
    2.6000    2.1600   -0.3060 H   0  0
    0.3630    2.8320    0.6740 H   0  0
    0.8030    2.2400    2.1820 H   0  0
    1.3500   -0.0900    1.3730 H   0  0
    2.4450   -0.3540    0.1270 H   0  0
    2.3710    4.4810    0.7810 H   0  0
    1.0980    4.7990    1.8240 H   0  0
    0.8570    0.6390   -1.5700 H   0  0
   -0.2950    0.9840   -0.2600 H   0  0
    3.2150    4.9570    3.0900 H   0  0
    2.3200    3.5550    3.7110 H   0  0
    3.6760    3.3260    2.6080 H   0  0
    0.0330   -3.5310   -1.4670 H   0  0
   -4.9340   -3.7050   -1.4670 H   0  0
   -1.1310   -5.7170   -1.4670 H   0  0
   -3.6150   -5.8070   -1.4670 H   0  0
  1  8  1  0
  1 10  1  0
  2 10  2  0
  3 12  1  0
  4  5  1  0
  4  6  1  0
  5  7  1  0
  6  8  1  0
  7  9  1  0
 10 11  1  0
 11 12  2  0
 11 13  1  0
 12 14  1  0
 13 15  2  0
 14 16  2  0
 15 16  1  0
  3 17  1  0
  4 18  1  0
  4 19  1  0
  5 20  1  0
  5 21  1  0
  6 22  1  0
  6 23  1  0
  7 24  1  0
  7 25  1  0
  8 26  1  0
  8 27  1  0
  9 28  1  0
  9 29  1  0
  9 30  1  0
 13 31  1  0
 14 32  1  0
 15 33  1  0
 16 34  1  0
M  END
> <Name>
22,629

> <OBJECTID>
9223372406225305611

> <ActiveAidCount>
0

> <AtomChiralCount>
0

> <AtomChiralDefCount>
0

> <AtomChiralUndefCount>
0

> <BondChiralCount>
0

> <BondChiralDefCount>
0

> <BondChiralUndefCount>
0

> <CID>
22629

> <CanonicalSmiles>
CCCCCCOC(=O)C1=CC=CC=C1O

> <Complexity>
203

> <CovalentUnitCount>
1

> <CreateDate>
2005/03/27 00:00

> <HeavyAtomCount>
16

> <HydrogenBondAcceptorCount>
3

> <HydrogenBondDonorCount>
1

> <IUPACName>
hexyl 2-hydroxybenzoate

> <InChI>
InChI=1S/C13H18O3/c1-2-3-4-7-10-16-13(15)11-8-5-6-9-12(11)14/h5-6,8-9,14H,2-4,7,10H2,1H3

> <InChIKey>
DUKPKQFHJQGTGU-UHFFFAOYSA-N

> <IsomericSmiles>
CCCCCCOC(=O)C1=CC=CC=C1O

> <IsotopeAtomCount>
0

> <MeSHHeading>
hexyl salicylate

> <MeSHTerm>
hexyl salicylate

> <MolecularFormula>
C13H18O3

> <MolecularWeight>
222.28

> <RotatableBondCount>
7

> <Smiles>
O(C(c1ccccc1O)=O)CCCCCC

> <SourceCategory>
Chemical Vendors
Legacy Depositors
Curation Efforts
Governmental Organizations
Subscription Services
Journal Publishers
Research and Development

> <Synonym>
Hexyl salicylate
Hexyl 2-hydroxybenzoate
6259-76-3
N-HEXYL SALICYLATE
Benzoic acid, 2-hydroxy-, hexyl ester
1-Hexyl salicylate
UNII-8F78EY72YL
Hexyl salicylic acid
EINECS 228-408-6
n-Hexyl 2-hydroxybenzoate
AI3-07842
8F78EY72YL
CHEBI:88836
Benzoic acid, hydroxy-, hexyl ester
Salicylic acid, hexyl ester (6CI,7CI,8CI)
Salicylic acid, hexyl ester
AC1L2KQN
Hexyl salicylate, >98%
ACMC-209v1l
EC 228-408-6
Hexyl 2-hydroxybenzoic acid
BIDD:ER0589
SCHEMBL113059
CHEMBL495972
CTK3J0025
DUKPKQFHJQGTGU-UHFFFAOYSA-N
ZINC2034026
9447AB
ANW-44503
MFCD00036487
Hexyl salicylate, >=99.0% (GC)
AKOS015902848
AHHY-6259-76-3
RTR-021524
TRA0048003
AJ-32970
AN-21927
Benzoic acid, 2-hydroxy-, n-hexyl ester
CJ-31830
LS-37579
ST2407036
TR-021524
FT-0627056
Hexyl salicylate, analytical reference material
I14-19365
F0001-1680

> <TPSA>
46.5

> <TotalAidCount>
3

> <TotalFormalCharge>
0

> <XLogP>
5.7

> <database>
PubChem Compound

> <matchingCount>
176

> <primaryID>
22629

> <queryTranslation>
7628[CompoundID] OR 244[CompoundID] OR 25059[CompoundID] OR 7618[CompoundID] OR 7641[CompoundID] OR 5053[CompoundID] OR 637511[CompoundID] OR 7714[CompoundID] OR 7762[CompoundID] OR 25429[CompoundID]
OR 8842[CompoundID] OR 7794[CompoundID] OR 637566[CompoundID] OR 7843[CompoundID] OR 174[CompoundID] OR 7870[CompoundID] OR 86102[CompoundID] OR 7888[CompoundID] OR 7896[CompoundID] OR 1140[CompoundID
] OR 8042[CompoundID] OR 8058[CompoundID] OR 8078[CompoundID] OR 8087[CompoundID] OR 8117[CompoundID] OR 8133[CompoundID] OR 115224[CompoundID] OR 8175[CompoundID] OR 8194[CompoundID] OR 445639[Compou
ndID] OR 4944[CompoundID] OR 8294[CompoundID] OR 93541[CompoundID] OR 8360[CompoundID] OR 8363[CompoundID] OR 656612[CompoundID] OR 125098[CompoundID] OR 3352[CompoundID] OR 3303913[CompoundID] OR 648
05[CompoundID] OR 31200[CompoundID] OR 1712058[CompoundID] OR 31236[CompoundID] OR 31239[CompoundID] OR 31265[CompoundID] OR 31266[CompoundID] OR 31276[CompoundID] OR 6950273[CompoundID] OR 518659[Com
poundID] OR 14896[CompoundID] OR 14798[CompoundID] OR 14829[CompoundID] OR 14830[CompoundID] OR 8635[CompoundID] OR 23266[CompoundID] OR 4284[CompoundID] OR 8693[CompoundID] OR 22311[CompoundID] OR 87
59[CompoundID] OR 8785[CompoundID] OR 2723810[CompoundID] OR 8857[CompoundID] OR 3893[CompoundID] OR 9936739[CompoundID] OR 516892[CompoundID] OR 5430[CompoundID] OR 9017[CompoundID] OR 15433[Compound
ID] OR 107720[CompoundID] OR 9552081[CompoundID] OR 164825[CompoundID] OR 10275455[CompoundID] OR 16666[CompoundID] OR 9839306[CompoundID] OR 5282227[CompoundID] OR 23676745[CompoundID] OR 32881[Compo
undID] OR 91581[CompoundID] OR 39800[CompoundID] OR 33344[CompoundID] OR 15962220[CompoundID] OR 33528[CompoundID] OR 5365075[CompoundID] OR 62829[CompoundID] OR 162381[CompoundID] OR 517202[CompoundI
D] OR 6433353[CompoundID] OR 2730[CompoundID] OR 5372405[CompoundID] OR 36081[CompoundID] OR 3120[CompoundID] OR 3017[CompoundID] OR 2969[CompoundID] OR 18827[CompoundID] OR 19518[CompoundID] OR 19658
[CompoundID] OR 38283[CompoundID] OR 2758[CompoundID] OR 10112[CompoundID] OR 10340[CompoundID] OR 712[CompoundID] OR 5794[CompoundID] OR 3347[CompoundID] OR 104150[CompoundID] OR 2912[CompoundID] OR
2450[CompoundID] OR 40326[CompoundID] OR 40585[CompoundID] OR 517055[CompoundID] OR 10913[CompoundID] OR 108242[CompoundID] OR 62097[CompoundID] OR 41679[CompoundID] OR 54680676[CompoundID] OR 62118[C
ompoundID] OR 753[CompoundID] OR 1030[CompoundID] OR 23673837[CompoundID] OR 54678504[CompoundID] OR 11442[CompoundID] OR 11463[CompoundID] OR 22230[CompoundID] OR 440917[CompoundID] OR 6054[CompoundI
D] OR 43234[CompoundID] OR 22629[CompoundID] OR 3039[CompoundID] OR 2735067[CompoundID] OR 6144[CompoundID] OR 702[CompoundID] OR 284[CompoundID] OR 176[CompoundID] OR 91688[CompoundID] OR 22947[Compo
undID] OR 47445[CompoundID] OR 1711973[CompoundID] OR 243[CompoundID] OR 10342051[CompoundID] OR 5281875[CompoundID] OR 3776[CompoundID] OR 6224[CompoundID] OR 104926[CompoundID] OR 8755[CompoundID] O
R 338[CompoundID] OR 123622[CompoundID] OR 23954[CompoundID] OR 6334[CompoundID] OR 2537[CompoundID] OR 24261[CompoundID] OR 23665760[CompoundID] OR 83975[CompoundID] OR 784[CompoundID] OR 24437[Compo
undID] OR 5360315[CompoundID] OR 311[CompoundID] OR 6549[CompoundID] OR 107689[CompoundID] OR 17100[CompoundID] OR 24976875[CompoundID] OR 6654[CompoundID] OR 71245[CompoundID] OR 6442842[CompoundID]
OR 62334[CompoundID] OR 54698175[CompoundID] OR 6328154[CompoundID] OR 24762[CompoundID] OR 440950[CompoundID] OR 7017[CompoundID] OR 5281873[CompoundID] OR 323[CompoundID] OR 5281167[CompoundID] OR 7
175[CompoundID] OR 7292[CompoundID] OR 6335613[CompoundID] OR 7456[CompoundID] OR 7462[CompoundID]

> <resultIndex>
87

> <resultRange>
1-176

> <textQuery>
7628,244,25059,7618,7641,5053,637511,7714,7762,25429,8842,7794,637566,7843,174,7870,86102,7888,7896,1140,8042,8058,8078,8087,8117,8133,115224,8175,8194,445639,4944,8294,93541,8360,8363,656612,125098,3
352,3303913,64805,31200,1712058,31236,31239,31265,31266,31276,6950273,518659,14896,14798,14829,14830,8635,23266,4284,8693,22311,8759,8785,2723810,8857,3893,9936739,516892,5430,9017,15433,107720,955208
1,164825,10275455,16666,9839306,5282227,23676745,32881,91581,39800,33344,15962220,33528,5365075,62829,162381,517202,6433353,2730,5372405,36081,3120,3017,2969,18827,19518,19658,38283,2758,10112,10340,7
12,5794,3347,104150,2912,2450,40326,40585,517055,10913,108242,62097,41679,54680676,62118,753,1030,23673837,54678504,11442,11463,22230,440917,6054,43234,22629,3039,2735067,6144,702,284,176,91688,22947,
47445,1711973,243,10342051,5281875,3776,6224,104926,8755,338,123622,23954,6334,2537,24261,23665760,83975,784,24437,5360315,311,6549,107689,17100,24976875,6654,71245,6442842,62334,54698175,6328154,2476
2,440950,7017,5281873,323,5281167,7175,7292,6335613,7456,7462

$$$$
22,311
  SciTegic10191915303D

 26 26  0  0  1  0            999 V2000
    2.5180    1.7950   -1.1070 C   0  0
    1.8360    1.2340   -0.0960 C   0  0
    2.3110    1.4780    1.3130 C   0  0
    0.6290    0.3900   -0.4220 C   0  0  3  0  0  0
    0.7830   -1.0430    0.1170 C   0  0
   -0.4880   -1.8640    0.0530 C   0  0
   -1.7030   -1.3030   -0.1230 C   0  0
   -2.9360   -2.1680   -0.1460 C   0  0
   -1.8870    0.1890   -0.3030 C   0  0
   -0.6640    1.0170    0.1190 C   0  0
    3.3930    2.4220   -1.0330 H   0  0
    2.1350    1.5860   -2.0960 H   0  0
    2.7700    2.4630    1.3830 H   0  0
    1.4770    1.3730    2.0060 H   0  0
    3.0640    0.7380    1.5820 H   0  0
    0.5490    0.3400   -1.5080 H   0  0
    1.5720   -1.5630   -0.4300 H   0  0
    1.1050   -1.0120    1.1600 H   0  0
   -0.4100   -2.9380    0.1500 H   0  0
   -2.8340   -3.0860    0.4340 H   0  0
   -3.1740   -2.4480   -1.1720 H   0  0
   -3.7850   -1.6140    0.2540 H   0  0
   -2.1020    0.3790   -1.3550 H   0  0
   -2.7640    0.5210    0.2540 H   0  0
   -0.7750    2.0410   -0.2400 H   0  0
   -0.6190    1.0720    1.2070 H   0  0
  1  2  2  0
  2  3  1  0
  2  4  1  0
  4  5  1  0
  4 10  1  0
  5  6  1  0
  6  7  2  0
  7  8  1  0
  7  9  1  0
  9 10  1  0
  1 11  1  0
  1 12  1  0
  3 13  1  0
  3 14  1  0
  3 15  1  0
  4 16  1  0
  5 17  1  0
  5 18  1  0
  6 19  1  0
  8 20  1  0
  8 21  1  0
  8 22  1  0
  9 23  1  0
  9 24  1  0
 10 25  1  0
 10 26  1  0
M  END
> <Name>
22,311

> <OBJECTID>
9223372410520272907

> <ActiveAidCount>
2

> <AtomChiralCount>
1

> <AtomChiralDefCount>
0

> <AtomChiralUndefCount>
1

> <BondChiralCount>
0

> <BondChiralDefCount>
0

> <BondChiralUndefCount>
0

> <CID>
22311

> <CanonicalSmiles>
CC1=CCC(CC1)C(=C)C

> <Complexity>
163

> <CovalentUnitCount>
1

> <CreateDate>
2004/09/16 00:00

> <HeavyAtomCount>
10

> <HydrogenBondAcceptorCount>
0

> <HydrogenBondDonorCount>
0

> <IUPACName>
1-methyl-4-prop-1-en-2-ylcyclohexene

> <InChI>
InChI=1S/C10H16/c1-8(2)10-6-4-9(3)5-7-10/h4,10H,1,5-7H2,2-3H3

> <InChIKey>
XMGQYMWWDOXHJM-UHFFFAOYSA-N

> <IsomericSmiles>
CC1=CCC(CC1)C(=C)C

> <IsotopeAtomCount>
0

> <MeSHHeading>
Limonene

> <MeSHTerm>
(4R)-1-methyl-4-(1-methylethenyl)cyclohexene
4 Mentha 1,8 diene
(+)-limonene
4-mentha-1,8-diene
(D)-limonene
1-methyl-4-(1-methylethenyl)cyclohexene
(+)-(R)-4-isopropenyl-1-methylcyclohexene
d Limonene
limonene, (R)-isomer
(R)-4-isopropenyl-1-methylcyclohexene
(R)-(+)-limonene
limonene, (+-)-isomer
cyclohexene, 1-methyl-4-(1-methylethenyl)-, (4R)-
dipentene
AISA 5203-L (+)limonene
limonene, (+)-
(-)-limonene
d-limonene
limonene
limonene, (S)-isomer
limonene, (+-)-
(4S)-1-methyl-4-isopropenylcyclohex-1-ene

> <MolecularFormula>
C10H16

> <MolecularWeight>
136.23

> <RotatableBondCount>
1

> <Smiles>
C=C(C1CCC(C)=CC1)C

> <SourceCategory>
Chemical Vendors
Legacy Depositors
Research and Development
Curation Efforts
Governmental Organizations
NIH Initiatives
Subscription Services
Journal Publishers

> <Synonym>
Dipentene
LIMONENE
Cinene
138-86-3
Cajeputene
DL-Limonene
Kautschin
p-Mentha-1,8-diene
Dipenten
Polylimonene
Eulimen
Nesol
Cajeputen
Limonen
Cinen
1,8-p-Menthadiene
Inactive limonene
Acintene DP dipentene
Polydipentene
Dipanol
Unitene
alpha-Limonene
Flavor orange
Orange flavor
Limonene polymer
Cyclohexene, 1-methyl-4-(1-methylethenyl)-
Goldflush II
Acintene DP
Dipentene polymer
1-Methyl-4-(1-methylethenyl)cyclohexene
Di-p-mentha-1,8-diene
1,8(9)-p-Menthadiene
4-Isopropenyl-1-methyl-1-cyclohexene
d,l-Limonene
Dipentene 200
4-Isopropenyl-1-methylcyclohexene
Polymerized dipentene
(+-)-Dipentene
(+-)-Linonene
p-Mentha-1,8-diene, dl-
Caswell No. 526
Zonarez 7085
Zonarez 7115
DL-4-Isopropenyl-1-methylcyclohexene
1-Methyl-4-isopropenyl-1-cyclohexene
delta-1,8-Terpodiene
(+-)-alpha-Limonene
MENTHA-1,8-DIENE (DL)
Dipentene, crude
.alpha.-Limonene
Limonene, dl-
NSC 21446
PC 560
1-methyl-4-(prop-1-en-2-yl)cyclohex-1-ene
p-Mentha-1,8-diene, polymers
(+/-)-Limonene
HSDB 1809
HSDB 1931
NSC 844
p-Mentha-1,8-diene, (+-)-
Cyclohexene, 1-methyl-4-(1-methylethenyl)-, homopolymer
EINECS 205-341-0
EINECS 231-732-0
UN2052
.delta.-1,8-Terpodiene
1-Methyl-p-isopropenyl-1-cyclohexene
EPA Pesticide Chemical Code 079701
1-methyl-4-prop-1-en-2-ylcyclohexene
AI3-00739
7705-14-8
CHEBI:15384
1-Methyl-4-isopropenylcyclohexene
XMGQYMWWDOXHJM-UHFFFAOYSA-N
4-isopropenyl-1-methyl-cyclohexene
C10H16
d(R)-4-Isopropenyl-1-methylcyclohexene
NCGC00163742-03
(1)-1-Methyl-4-(1-methylvinyl)cyclohexene
DSSTox_CID_9612
DSSTox_RID_78787
DSSTox_GSID_29612
Terpenes and Terpenoids, limonene fraction
beta-Limonene
Cyclohexene, 1-methyl-4-(1-methylethenyl)-, (.+/-.)-
LEMON OIL
Limonene, L-
Lemon extract
Cyclohexene, 1-methyl-4-(1-methylethenyl)-, (S)-
d-Limonene (JAN)
Sweet orange oil
Oils, lemon
P-Mentha-1,8-diene, (S)-(-)-
CAS-138-86-3
Oils, orange, sweet
65996-98-7
DIPENTENE (+-)
Terpodiene
Ciene
a-limonene
Cyclil decene
Lemon tincture
EINECS 227-815-6
Neroli oil
Orange oil
Cedro oil
Orange leaf oil
Citrus limon oil
Extract of lemon
Oil of lemon
Oil sweet orange
Oils, orange
Achilles dipentene
Orange flower oil
Dipentene, tech.
Absolute petitgrain
Orange oil, sweet
Lemon oil, Guinea
Citrus sinensis oil
Dipentene, technical, for use as solvent (for the paint industry), mixture of various terpenes
Lemon petigrain oil
Lemon oil, Italian
Citrus limon extract
Lemon petitgrain oil
Neroli oil, pommade
Oil of sweet orange
AI3-25390
c0626
Mentha-1,8-diene
Absolue orange flower
Lemon oil concentrate
Lemon oil, distilled
Oils, citrus limonia
Orange oil, distilled
p-Mentha-1, dl-
Dipentene, homopolymer
Orange flower absolute
Orange oil concentrate
Absolute orange flowers
(.+-.)-Limonene
Caswell No. 425A
d-Limonene (Limonene)
limonene, (S)-isomer
OIL OF ORANGE
Zitronen oel [German]
(.+-.)-Dipentene
1-Methyl-4-(1-methylethenyl)cyclohexene, (S)-
4-mentha-1,8-diene
Orange peel oil, sweet
Citrus sinensis peel oil
Petitgrain citronnier oil
AC1Q2ODZ
(.+/-.)-Dipentene
(.+/-.)-Limonene
DIPENTENE 38 PF
limonene, (+-)-isomer
Limonene, (+/-)-
Neat oil of sweet orange
ESSENCE DE PIN PF
DL-p-mentha-1,8-diene
Mentha-1,8-diene, DL
(+-)-(RS)-limonene
Dipentene, technical grade
AC1L2K5B
AC1Q1J4Q
AC1Q1J4R
Cyclohexene, (.+-.)-
Dipentene, p.a., 95%
Orange sweet oil, expressed
Orange flower water absolute
p-Mentha-1,8(9)-diene
Orange oil, distilled, sweet
Orange oil, sweet, expressed
CCRIS 683
Dipentene, mixture of isomers
Sweet orange oil, terpeneless
CHEMBL15799
Monocyclic terpene hydrocarbons
Absolue orange flower decoloree
Citrus medica var. limonum oil
FEMA No. 2822
FEMA No. 2853
Methyl-4-isopropenylcyclohexene
NSC844
(.+/-.)-.alpha.-Limonene
Absolue orange flower from water
DTXSID2029612
Racemic: DL-limonene; dipentene
(+/-)-p-Mentha-1,8-diene
CTK5C8417
HSDB 1934
HSDB 1944
KS-00000WVS
p-Mentha-1, (.+-.)-
NSC-844
HMS3264E05
Pharmakon1600-00307080
Methyl-4-isopropenyl-1-cyclohexene
HY-N0544
NSC21446
Tox21_112068
Tox21_201818
Tox21_303409
MFCD00062992
NSC-21446
NSC757069
STK801934
1-methyl-4-isopropenylcyclohex-1-ene
AKOS009031280
Cyclohexene, 4-Isopropenyl-1-methyl-
Methyl-4-(1-methylethenyl)cyclohexene
WLN: L6UTJ A1 DY1 & U1
CCG-214016
EPA Pesticide Chemical Code 040501
EPA Pesticide Chemical Code 040517
LS-2278
LS-2880
MCULE-2462317444
NSC-757069
p-Mentha-1,8-diene, (.+/-.)-
p-Mentha-1,8-diene, polymers (8CI)
RP20299
UN 2052
Petitgrain bigarade sur fleurs d'oranger
(+/-)-p-Mentha-1,8-diene homopolymer
Limonene 1000 microg/mL in Isopropanol
NCGC00163742-01
NCGC00163742-02
NCGC00163742-04
NCGC00257291-01
NCGC00259367-01
8050-32-6
AN-19448
AN-21149
AN-21151
AN-21831
AN-23147
Dipentene [UN2052] [Flammable liquid]
LS-89490
LS-89491
LS-98217
NCI60_041856
p-Mentha-1,8-diene, homopolymer (7CI)
SC-80005
1-methyl-4-(1-methylethenyl) cylcohexene
1-methyl-4-(prop-1-en-2-yl)cyclohexene
4-(1-methylethenyl)-1-methyl-cyclohexene
Dipentene [UN2052] [Flammable liquid]
1-methyl-4-(1-methylvinyl)cyclohex-1-ene
Cyclohexene, 1-methyl-4-(1-methylethynyl)
Cyclohexene,1-methyl-4-(1-methylethenyl)-
lemon, oil (citrus limon (l.) burm. f.)
LS-180589
LS-181342
CS-0009072
FT-0600409
L0046
ST51046654
EN300-21627
C06078
D00194
1-METHYL-4-PROP-1-EN-2-YL-CYCLOHEXENE
AB01563249_01
SR-01000872759
J-007186
J-520048
Petitgrain lemon oil (Citrus limon (L.) Burm. f.)
SR-01000872759-1
I14-18195
I14-53978
4B4F06FC-8293-455D-8FD5-C970CDB001EE
Orange oil, terpeneless (Citrus sinensis (L.) Osbeck)
Cyclohexene,3-methyl-6-(1-methylethenyl)-, (3R,6R)-rel-
ORANGE PEEL, SWEET, OIL (CITRUS SINENSIS (L.) OSBECK)
ORANGE, OIL, DISTILLED (CITRUS SINENSIS (L.) OSBECK)
Dipentene, mixt. of limonene, 56-64%, and terpinolene, 20-25%
555-08-8
8022-90-0

> <TPSA>
0

> <TotalAidCount>
363

> <TotalFormalCharge>
0

> <XLogP>
3.4

> <database>
PubChem Compound

> <matchingCount>
176

> <primaryID>
22311

> <queryTranslation>
7628[CompoundID] OR 244[CompoundID] OR 25059[CompoundID] OR 7618[CompoundID] OR 7641[CompoundID] OR 5053[CompoundID] OR 637511[CompoundID] OR 7714[CompoundID] OR 7762[CompoundID] OR 25429[CompoundID]
OR 8842[CompoundID] OR 7794[CompoundID] OR 637566[CompoundID] OR 7843[CompoundID] OR 174[CompoundID] OR 7870[CompoundID] OR 86102[CompoundID] OR 7888[CompoundID] OR 7896[CompoundID] OR 1140[CompoundID
] OR 8042[CompoundID] OR 8058[CompoundID] OR 8078[CompoundID] OR 8087[CompoundID] OR 8117[CompoundID] OR 8133[CompoundID] OR 115224[CompoundID] OR 8175[CompoundID] OR 8194[CompoundID] OR 445639[Compou
ndID] OR 4944[CompoundID] OR 8294[CompoundID] OR 93541[CompoundID] OR 8360[CompoundID] OR 8363[CompoundID] OR 656612[CompoundID] OR 125098[CompoundID] OR 3352[CompoundID] OR 3303913[CompoundID] OR 648
05[CompoundID] OR 31200[CompoundID] OR 1712058[CompoundID] OR 31236[CompoundID] OR 31239[CompoundID] OR 31265[CompoundID] OR 31266[CompoundID] OR 31276[CompoundID] OR 6950273[CompoundID] OR 518659[Com
poundID] OR 14896[CompoundID] OR 14798[CompoundID] OR 14829[CompoundID] OR 14830[CompoundID] OR 8635[CompoundID] OR 23266[CompoundID] OR 4284[CompoundID] OR 8693[CompoundID] OR 22311[CompoundID] OR 87
59[CompoundID] OR 8785[CompoundID] OR 2723810[CompoundID] OR 8857[CompoundID] OR 3893[CompoundID] OR 9936739[CompoundID] OR 516892[CompoundID] OR 5430[CompoundID] OR 9017[CompoundID] OR 15433[Compound
ID] OR 107720[CompoundID] OR 9552081[CompoundID] OR 164825[CompoundID] OR 10275455[CompoundID] OR 16666[CompoundID] OR 9839306[CompoundID] OR 5282227[CompoundID] OR 23676745[CompoundID] OR 32881[Compo
undID] OR 91581[CompoundID] OR 39800[CompoundID] OR 33344[CompoundID] OR 15962220[CompoundID] OR 33528[CompoundID] OR 5365075[CompoundID] OR 62829[CompoundID] OR 162381[CompoundID] OR 517202[CompoundI
D] OR 6433353[CompoundID] OR 2730[CompoundID] OR 5372405[CompoundID] OR 36081[CompoundID] OR 3120[CompoundID] OR 3017[CompoundID] OR 2969[CompoundID] OR 18827[CompoundID] OR 19518[CompoundID] OR 19658
[CompoundID] OR 38283[CompoundID] OR 2758[CompoundID] OR 10112[CompoundID] OR 10340[CompoundID] OR 712[CompoundID] OR 5794[CompoundID] OR 3347[CompoundID] OR 104150[CompoundID] OR 2912[CompoundID] OR
2450[CompoundID] OR 40326[CompoundID] OR 40585[CompoundID] OR 517055[CompoundID] OR 10913[CompoundID] OR 108242[CompoundID] OR 62097[CompoundID] OR 41679[CompoundID] OR 54680676[CompoundID] OR 62118[C
ompoundID] OR 753[CompoundID] OR 1030[CompoundID] OR 23673837[CompoundID] OR 54678504[CompoundID] OR 11442[CompoundID] OR 11463[CompoundID] OR 22230[CompoundID] OR 440917[CompoundID] OR 6054[CompoundI
D] OR 43234[CompoundID] OR 22629[CompoundID] OR 3039[CompoundID] OR 2735067[CompoundID] OR 6144[CompoundID] OR 702[CompoundID] OR 284[CompoundID] OR 176[CompoundID] OR 91688[CompoundID] OR 22947[Compo
undID] OR 47445[CompoundID] OR 1711973[CompoundID] OR 243[CompoundID] OR 10342051[CompoundID] OR 5281875[CompoundID] OR 3776[CompoundID] OR 6224[CompoundID] OR 104926[CompoundID] OR 8755[CompoundID] O
R 338[CompoundID] OR 123622[CompoundID] OR 23954[CompoundID] OR 6334[CompoundID] OR 2537[CompoundID] OR 24261[CompoundID] OR 23665760[CompoundID] OR 83975[CompoundID] OR 784[CompoundID] OR 24437[Compo
undID] OR 5360315[CompoundID] OR 311[CompoundID] OR 6549[CompoundID] OR 107689[CompoundID] OR 17100[CompoundID] OR 24976875[CompoundID] OR 6654[CompoundID] OR 71245[CompoundID] OR 6442842[CompoundID]
OR 62334[CompoundID] OR 54698175[CompoundID] OR 6328154[CompoundID] OR 24762[CompoundID] OR 440950[CompoundID] OR 7017[CompoundID] OR 5281873[CompoundID] OR 323[CompoundID] OR 5281167[CompoundID] OR 7
175[CompoundID] OR 7292[CompoundID] OR 6335613[CompoundID] OR 7456[CompoundID] OR 7462[CompoundID]

> <resultIndex>
88

> <resultRange>
1-176

> <textQuery>
7628,244,25059,7618,7641,5053,637511,7714,7762,25429,8842,7794,637566,7843,174,7870,86102,7888,7896,1140,8042,8058,8078,8087,8117,8133,115224,8175,8194,445639,4944,8294,93541,8360,8363,656612,125098,3
352,3303913,64805,31200,1712058,31236,31239,31265,31266,31276,6950273,518659,14896,14798,14829,14830,8635,23266,4284,8693,22311,8759,8785,2723810,8857,3893,9936739,516892,5430,9017,15433,107720,955208
1,164825,10275455,16666,9839306,5282227,23676745,32881,91581,39800,33344,15962220,33528,5365075,62829,162381,517202,6433353,2730,5372405,36081,3120,3017,2969,18827,19518,19658,38283,2758,10112,10340,7
12,5794,3347,104150,2912,2450,40326,40585,517055,10913,108242,62097,41679,54680676,62118,753,1030,23673837,54678504,11442,11463,22230,440917,6054,43234,22629,3039,2735067,6144,702,284,176,91688,22947,
47445,1711973,243,10342051,5281875,3776,6224,104926,8755,338,123622,23954,6334,2537,24261,23665760,83975,784,24437,5360315,311,6549,107689,17100,24976875,6654,71245,6442842,62334,54698175,6328154,2476
2,440950,7017,5281873,323,5281167,7175,7292,6335613,7456,7462

$$$$
19,658
  SciTegic10191915303D

 12 12  0  0  0  0            999 V2000
    0.2810   -3.0200   -0.1740 S   0  0
    2.4380   -1.0490   -0.1350 O   0  5
    1.2460   -0.5280   -0.0680 N   0  0
    0.1330   -1.3500   -0.0780 C   0  0
    1.1130    0.8460    0.0080 C   0  0
   -1.2070   -0.7170    0.0000 C   0  0
   -0.0980    1.4390    0.0800 C   0  0
   -1.3260    0.6230    0.0780 C   0  0
    1.9840    1.4860    0.0140 H   0  0
   -2.0940   -1.3360   -0.0040 H   0  0
   -0.1720    2.5160    0.1390 H   0  0
   -2.2990    1.0900    0.1390 H   0  0
  1  4  2  0
  2  3  1  0
  3  4  1  0
  3  5  1  0
  4  6  1  0
  5  7  2  0
  6  8  2  0
  7  8  1  0
  5  9  1  0
  6 10  1  0
  7 11  1  0
  8 12  1  0
M  CHG  1   2  -1
M  END
> <Name>
19,658

> <OBJECTID>
9223372414815240203

> <ActiveAidCount>
73

> <AtomChiralCount>
0

> <AtomChiralDefCount>
0

> <AtomChiralUndefCount>
0

> <BondChiralCount>
0

> <BondChiralDefCount>
0

> <BondChiralUndefCount>
0

> <CID>
19658

> <CanonicalSmiles>
C1=CC(=S)N(C=C1)[O-].[Na+]

> <Complexity>
162

> <CovalentUnitCount>
2

> <CreateDate>
2005/08/08 00:00

> <HeavyAtomCount>
9

> <HydrogenBondAcceptorCount>
2

> <HydrogenBondDonorCount>
0

> <IUPACName>
sodium;1-oxidopyridine-2-thione

> <InChI>
InChI=1S/C5H4NOS.Na/c7-6-4-2-1-3-5(6)8;/h1-4H;/q-1;+1

> <InChIKey>
XNRNJIIJLOFJEK-UHFFFAOYSA-N

> <IsomericSmiles>
C1=CC(=S)N(C=C1)[O-].[Na+]

> <IsotopeAtomCount>
0

> <MeSHHeading>
pyrithione

> <MeSHTerm>
indium 111-2-mercaptopyridine-1-oxide
2-mercaptopyridine-N-oxide
2-pyridinethiol 1-oxide
pyrithione sodium salt
pyrithione
pyrithione barium (2:1) salt
67Ga-MPO
1-hydroxypyridine-2-thione
68Ga-mercaptopyridine-N-oxide
pyrithione potassium salt
2-HPT cpd
pyrithione calcium (2:1) salt
pyrithione magnesium salt
sodium pyridinethione
N-hydroxypyridine-2-thione
Omadine
pyridine-2-thiol N-oxide

> <MolecularFormula>
C5H4NNaOS

> <MolecularWeight>
149.15

> <PharmAction>
Pharmacologic Actions
Chemical Actions and Uses
Anti-Infective Agents
Antifungal Agents
Therapeutic Uses

> <RotatableBondCount>
0

> <Smiles>
S=C1C=CC=CN1[O-].[Na+]

> <SourceCategory>
Legacy Depositors
Chemical Vendors
Research and Development
Curation Efforts
Governmental Organizations
Subscription Services
Journal Publishers

> <Synonym>
3811-73-2
Sodium Omadine
Sodium pyrithione
Sodium (2-pyridylthio)-N-oxide
Pyrithione sodium salt
Thione (reagent)
2-Pyridinethiol-1-oxide sodium salt
2-Mercaptopyridine N-oxide sodium salt
Omadine sodium
Sodium-2-pyridinethiol-1-oxide
Sodium omadine (VAN)
Sodium pyrithione (VAN)
2-Mercaptopyridine-N-oxide sodium salt
Sodium 2-pyridinethiol N-oxide
Sodium 2-pyridinethiol 1-oxide
sodium (1-oxidopyridin-1-ium-2-yl)sulfanide
Sodium 2-mercaptopyridine 1-oxide
Sodium 2-pyridinethiolate 1-oxide
UNII-6L3991491R
1-Oxo-2-pyridinethiol sodium salt
NSC 4483
2-Pyridinethiol N-oxide sodium salt
EINECS 223-296-5
2-Mercaptopyridine oxide sodium salt
MFCD01941547
Sodium, (2-pyridinylthio)-, N-oxide
1-Hydroxy-2-pyridinethione sodium salt
2-Mercaptopyridine 1-oxide sodium salt
2-Pyridinethiol, N-oxide, sodium salt
2-Mercaptopyridine-N-oxide, sodium salt
(1-Hydroxy-2-pyridinethione), sodium salt
AI3-22596
6L3991491R
2-Pyridinethiol, 1-oxide, sodium salt (1:1)
2-Mercaptopyridine N-oxide sodium salt anhydrous
PYRITHIONE SODIUM
2-Pyridinethiol 1-Oxide Sodium Salt
Sodium 2-sulfidopyridine 1-oxide
Prestwick_78
C5H4NNaOS
AC1L1BR6
DSSTox_CID_22390
DSSTox_RID_80011
DSSTox_GSID_42390
SCHEMBL3101261
CHEMBL2364542
DTXSID3042390
2-Mercaptopyridine n-oxide sodium
WNGMMIYXPIAYOB-UHFFFAOYSA-M
N-Hydroxypyridinethione Sodium Salt
EBD41219
STR00395
2-Mercaptopyridinen-oxide sodiumsalt
Tox21_300128
Sodium, (2-pyridylthio)-, N-oxide
AKOS000121187
sodium1-oxidopyridin-1-ium-2-thiolate
1-?oxide-2-?Pyridinethiol sodium salt
2-Mercaptopyridine-1-oxide sodium salt
AC-1079
Pyridine-2-thiol 1-oxide, sodium salt
RL03454
sodium 1-oxidopyridin-1-ium-2-thiolate
2-Mercaptopyridine N-oxide, sodium salt
NCGC00254107-01
BC207991
CAS-3811-73-2
LS-132087
M0632
M2841
Sodium, (2-pyridylthio)-, N-oxide (7CI)
2-Mercaptopyridine N-oxide sodium salt, 95%
EC 223-296-5
2-Mercaptopyridine N-oxide sodium salt, >=96%
(1-Hydroxy-2-pyridinethione), sodium salt, tech
(1-Hydroxy-2-pyridinethione), sodium salt, tech.
2-Mercaptopyridine N-oxide sodium salt, anhydrous
W-106499
2-Mercaptopyridine N-oxide sodium salt, >=96.0% (NT)
2-Mercaptopyridine N-oxide sodium salt solution, ~40% in H2O, very deep brown
Sodium-2-pyridinethiol-1-oxide; 2-Mercaptopyridine-N-oxide sodium salt; 2-Pyridinethiol-1-oxide sodium salt; N-Hydroxy-2-pyridinethione sodium salt

> <TPSA>
58.4

> <TotalAidCount>
211

> <TotalFormalCharge>
0

> <database>
PubChem Compound

> <matchingCount>
176

> <primaryID>
19658

> <queryTranslation>
7628[CompoundID] OR 244[CompoundID] OR 25059[CompoundID] OR 7618[CompoundID] OR 7641[CompoundID] OR 5053[CompoundID] OR 637511[CompoundID] OR 7714[CompoundID] OR 7762[CompoundID] OR 25429[CompoundID]
OR 8842[CompoundID] OR 7794[CompoundID] OR 637566[CompoundID] OR 7843[CompoundID] OR 174[CompoundID] OR 7870[CompoundID] OR 86102[CompoundID] OR 7888[CompoundID] OR 7896[CompoundID] OR 1140[CompoundID
] OR 8042[CompoundID] OR 8058[CompoundID] OR 8078[CompoundID] OR 8087[CompoundID] OR 8117[CompoundID] OR 8133[CompoundID] OR 115224[CompoundID] OR 8175[CompoundID] OR 8194[CompoundID] OR 445639[Compou
ndID] OR 4944[CompoundID] OR 8294[CompoundID] OR 93541[CompoundID] OR 8360[CompoundID] OR 8363[CompoundID] OR 656612[CompoundID] OR 125098[CompoundID] OR 3352[CompoundID] OR 3303913[CompoundID] OR 648
05[CompoundID] OR 31200[CompoundID] OR 1712058[CompoundID] OR 31236[CompoundID] OR 31239[CompoundID] OR 31265[CompoundID] OR 31266[CompoundID] OR 31276[CompoundID] OR 6950273[CompoundID] OR 518659[Com
poundID] OR 14896[CompoundID] OR 14798[CompoundID] OR 14829[CompoundID] OR 14830[CompoundID] OR 8635[CompoundID] OR 23266[CompoundID] OR 4284[CompoundID] OR 8693[CompoundID] OR 22311[CompoundID] OR 87
59[CompoundID] OR 8785[CompoundID] OR 2723810[CompoundID] OR 8857[CompoundID] OR 3893[CompoundID] OR 9936739[CompoundID] OR 516892[CompoundID] OR 5430[CompoundID] OR 9017[CompoundID] OR 15433[Compound
ID] OR 107720[CompoundID] OR 9552081[CompoundID] OR 164825[CompoundID] OR 10275455[CompoundID] OR 16666[CompoundID] OR 9839306[CompoundID] OR 5282227[CompoundID] OR 23676745[CompoundID] OR 32881[Compo
undID] OR 91581[CompoundID] OR 39800[CompoundID] OR 33344[CompoundID] OR 15962220[CompoundID] OR 33528[CompoundID] OR 5365075[CompoundID] OR 62829[CompoundID] OR 162381[CompoundID] OR 517202[CompoundI
D] OR 6433353[CompoundID] OR 2730[CompoundID] OR 5372405[CompoundID] OR 36081[CompoundID] OR 3120[CompoundID] OR 3017[CompoundID] OR 2969[CompoundID] OR 18827[CompoundID] OR 19518[CompoundID] OR 19658
[CompoundID] OR 38283[CompoundID] OR 2758[CompoundID] OR 10112[CompoundID] OR 10340[CompoundID] OR 712[CompoundID] OR 5794[CompoundID] OR 3347[CompoundID] OR 104150[CompoundID] OR 2912[CompoundID] OR
2450[CompoundID] OR 40326[CompoundID] OR 40585[CompoundID] OR 517055[CompoundID] OR 10913[CompoundID] OR 108242[CompoundID] OR 62097[CompoundID] OR 41679[CompoundID] OR 54680676[CompoundID] OR 62118[C
ompoundID] OR 753[CompoundID] OR 1030[CompoundID] OR 23673837[CompoundID] OR 54678504[CompoundID] OR 11442[CompoundID] OR 11463[CompoundID] OR 22230[CompoundID] OR 440917[CompoundID] OR 6054[CompoundI
D] OR 43234[CompoundID] OR 22629[CompoundID] OR 3039[CompoundID] OR 2735067[CompoundID] OR 6144[CompoundID] OR 702[CompoundID] OR 284[CompoundID] OR 176[CompoundID] OR 91688[CompoundID] OR 22947[Compo
undID] OR 47445[CompoundID] OR 1711973[CompoundID] OR 243[CompoundID] OR 10342051[CompoundID] OR 5281875[CompoundID] OR 3776[CompoundID] OR 6224[CompoundID] OR 104926[CompoundID] OR 8755[CompoundID] O
R 338[CompoundID] OR 123622[CompoundID] OR 23954[CompoundID] OR 6334[CompoundID] OR 2537[CompoundID] OR 24261[CompoundID] OR 23665760[CompoundID] OR 83975[CompoundID] OR 784[CompoundID] OR 24437[Compo
undID] OR 5360315[CompoundID] OR 311[CompoundID] OR 6549[CompoundID] OR 107689[CompoundID] OR 17100[CompoundID] OR 24976875[CompoundID] OR 6654[CompoundID] OR 71245[CompoundID] OR 6442842[CompoundID]
OR 62334[CompoundID] OR 54698175[CompoundID] OR 6328154[CompoundID] OR 24762[CompoundID] OR 440950[CompoundID] OR 7017[CompoundID] OR 5281873[CompoundID] OR 323[CompoundID] OR 5281167[CompoundID] OR 7
175[CompoundID] OR 7292[CompoundID] OR 6335613[CompoundID] OR 7456[CompoundID] OR 7462[CompoundID]

> <resultIndex>
90

> <resultRange>
1-176

> <textQuery>
7628,244,25059,7618,7641,5053,637511,7714,7762,25429,8842,7794,637566,7843,174,7870,86102,7888,7896,1140,8042,8058,8078,8087,8117,8133,115224,8175,8194,445639,4944,8294,93541,8360,8363,656612,125098,3
352,3303913,64805,31200,1712058,31236,31239,31265,31266,31276,6950273,518659,14896,14798,14829,14830,8635,23266,4284,8693,22311,8759,8785,2723810,8857,3893,9936739,516892,5430,9017,15433,107720,955208
1,164825,10275455,16666,9839306,5282227,23676745,32881,91581,39800,33344,15962220,33528,5365075,62829,162381,517202,6433353,2730,5372405,36081,3120,3017,2969,18827,19518,19658,38283,2758,10112,10340,7
12,5794,3347,104150,2912,2450,40326,40585,517055,10913,108242,62097,41679,54680676,62118,753,1030,23673837,54678504,11442,11463,22230,440917,6054,43234,22629,3039,2735067,6144,702,284,176,91688,22947,
47445,1711973,243,10342051,5281875,3776,6224,104926,8755,338,123622,23954,6334,2537,24261,23665760,83975,784,24437,5360315,311,6549,107689,17100,24976875,6654,71245,6442842,62334,54698175,6328154,2476
2,440950,7017,5281873,323,5281167,7175,7292,6335613,7456,7462

$$$$
19,518
  SciTegic10191915303D

 53 54  0  0  0  0            999 V2000
    2.7700   -1.0980    0.3890 C   0  0
    1.5290   -0.7870    0.8970 N   0  0
    0.6950    0.0410    0.2030 C   0  0
   -1.3630    1.4900    0.0370 N   0  3
   -0.6560    0.3610    0.7870 C   0  0
    2.9080   -2.1330   -0.5640 C   0  0
    3.9140   -0.3830    0.8170 C   0  0
    1.0390    0.5020   -0.8590 O   0  0
   -1.7950    1.0820   -1.3730 C   0  0
   -2.4900   -0.2330   -1.3730 C   0  0
   -2.8140    1.6720    0.4790 C   0  0
   -0.5700    2.7970    0.0550 C   0  0
    5.3110   -1.7350   -0.6540 C   0  0
    4.1800   -2.4450   -1.0800 C   0  0
    5.1780   -0.7070    0.2910 C   0  0
    3.8200    0.7170    1.8180 C   0  0
    1.7340   -2.9160   -1.0470 C   0  0
   -3.8970   -0.2830   -1.3730 C   0  0
   -1.7440   -1.4240   -1.3730 C   0  0
    0.1600    3.0250    1.3790 C   0  0
   -2.9380    2.4300    1.8010 C   0  0
   -4.5550   -1.5260   -1.3730 C   0  0
   -2.4040   -2.6660   -1.3730 C   0  0
   -3.8090   -2.7170   -1.3730 C   0  0
    1.2400   -1.1680    1.7760 H   0  0
   -1.3090   -0.5080    0.7070 H   0  0
   -0.5530    0.6050    1.8440 H   0  0
   -0.9360    1.0370   -2.0410 H   0  0
   -2.4470    1.8380   -1.8100 H   0  0
   -3.3970    2.1640   -0.3030 H   0  0
   -3.3240    0.7110    0.5350 H   0  0
   -1.2190    3.6420   -0.1780 H   0  0
    0.1250    2.8380   -0.7830 H   0  0
    6.2830   -1.9790   -1.0530 H   0  0
    4.2910   -3.2370   -1.8090 H   0  0
    6.0550   -0.1640    0.6150 H   0  0
    2.8160    0.8830    2.2090 H   0  0
    4.1600    1.6480    1.3690 H   0  0
    4.4730    0.4940    2.6620 H   0  0
    0.8160   -2.7400   -0.4840 H   0  0
    1.9590   -3.9810   -0.9940 H   0  0
    1.5370   -2.6680   -2.0900 H   0  0
   -4.4770    0.6270   -1.3730 H   0  0
   -0.6640   -1.3930   -1.3730 H   0  0
    0.4800    4.0600    1.4920 H   0  0
    1.0470    2.3920    1.4420 H   0  0
   -0.4840    2.7810    2.2230 H   0  0
   -3.9710    2.4350    2.1470 H   0  0
   -2.3110    1.9730    2.5670 H   0  0
   -2.6190    3.4650    1.6840 H   0  0
   -5.6330   -1.5650   -1.3730 H   0  0
   -1.8300   -3.5820   -1.3730 H   0  0
   -4.3150   -3.6720   -1.3730 H   0  0
  1  2  1  0
  1  6  2  0
  1  7  1  0
  2  3  1  0
  3  5  1  0
  3  8  2  0
  4  5  1  0
  4  9  1  0
  4 11  1  0
  4 12  1  0
  6 14  1  0
  6 17  1  0
  7 15  2  0
  7 16  1  0
  9 10  1  0
 10 18  2  0
 10 19  1  0
 11 21  1  0
 12 20  1  0
 13 15  1  0
 13 14  2  0
 18 22  1  0
 19 23  2  0
 22 24  2  0
 23 24  1  0
  2 25  1  0
  5 26  1  0
  5 27  1  0
  9 28  1  0
  9 29  1  0
 11 30  1  0
 11 31  1  0
 12 32  1  0
 12 33  1  0
 13 34  1  0
 14 35  1  0
 15 36  1  0
 16 37  1  0
 16 38  1  0
 16 39  1  0
 17 40  1  0
 17 41  1  0
 17 42  1  0
 18 43  1  0
 19 44  1  0
 20 45  1  0
 20 46  1  0
 20 47  1  0
 21 48  1  0
 21 49  1  0
 21 50  1  0
 22 51  1  0
 23 52  1  0
 24 53  1  0
M  CHG  1   4   1
M  END
> <Name>
19,518

> <OBJECTID>
9223372419110207499

> <ActiveAidCount>
4

> <AtomChiralCount>
0

> <AtomChiralDefCount>
0

> <AtomChiralUndefCount>
0

> <BondChiralCount>
0

> <BondChiralDefCount>
0

> <BondChiralUndefCount>
0

> <CID>
19518

> <CanonicalSmiles>
CC[N+](CC)(CC1=CC=CC=C1)CC(=O)NC2=C(C=CC=C2C)C.C1=CC=C(C=C1)C(=O)[O-]

> <Complexity>
473

> <CovalentUnitCount>
2

> <CreateDate>
2005/08/08 00:00

> <HeavyAtomCount>
33

> <HydrogenBondAcceptorCount>
3

> <HydrogenBondDonorCount>
1

> <IUPACName>
benzyl-[2-(2,6-dimethylanilino)-2-oxoethyl]-diethylazanium;benzoate

> <InChI>
InChI=1S/C21H28N2O.C7H6O2/c1-5-23(6-2,15-19-13-8-7-9-14-19)16-20(24)22-21-17(3)11-10-12-18(21)4;8-7(9)6-4-2-1-3-5-6/h7-14H,5-6,15-16H2,1-4H3;1-5H,(H,8,9)

> <InChIKey>
VWTINHYPRWEBQY-UHFFFAOYSA-N

> <IsomericSmiles>
CC[N+](CC)(CC1=CC=CC=C1)CC(=O)NC2=C(C=CC=C2C)C.C1=CC=C(C=C1)C(=O)[O-]

> <IsotopeAtomCount>
0

> <MeSHHeading>
denatonium

> <MeSHTerm>
denatonium
Bitrex
denatonium chloride
denatonium benzoate

> <MolecularFormula>
C28H34N2O3

> <MolecularWeight>
446.6

> <PharmAction>
Peripheral Nervous System Agents
Physiological Effects of Drugs
Pharmacologic Actions
Sensory System Agents
Specialty Uses of Chemicals
Aversive Agents
Molecular Mechanisms of Pharmacological Action
Therapeutic Uses
Central Nervous System Agents
Abuse-Deterrent Formulations
Pharmaceutic Aids
Pharmaceutical Preparations
Chemical Actions and Uses

> <RotatableBondCount>
7

> <Smiles>
c1(c(C)cccc1C)NC(=O)C[N+](CC)(CC)Cc2ccccc2.C(c3ccccc3)(=O)[O-]

> <SourceCategory>
Chemical Vendors
Legacy Depositors
Research and Development
Curation Efforts
Subscription Services
Journal Publishers
Governmental Organizations
NIH Initiatives

> <Synonym>
DENATONIUM BENZOATE
3734-33-6
Bitrex
Lidocaine benzyl benzoate
Anispray
Aversion
Denatonium (benzoate)
Gori
THS-839
Caswell No. 083BB
UNII-M5BA6GAF1O
Denatonium benzoate anhydrous
WIN 16568
BENZYLDIETHYL
Denatonii benzoas [INN-Latin]
EINECS 223-095-2
Benzoate de denatonium [INN-French]
Benzoato de denatonio [INN-Spanish]
M5BA6GAF1O
Denatonium benzoate [USAN:INN:BAN]
EPA Pesticide Chemical Code 009106
NSC 157658
Denatonium benzoate granules
MFCD00031578
Benzyldiethyl((2,6-xylylcarbamoyl)methyl)ammonium benzoate
Benzyldiethyl[(2,6-xylylcarbamoyl)methyl]ammonium benzoate
NCGC00017043-02
AK161798
CAS-3734-33-6
N-Benzyl-2-((2,6-dimethylphenyl)amino)-N,N-diethyl-2-oxoethanaminium benzoate
Benzenemethanaminium, N-(2-((2,6-dimethylphenyl)amino)-2-oxoethyl)-N,N-diethyl-, benzoate
DSSTox_CID_14376
DSSTox_RID_79149
DSSTox_GSID_34376
W-106547
((2,6-Xylylcarbamoyl)methyl)diethyl benzyl ammonium benzoate
C28H34N2O3
Ammonium, benzyldiethyl((2,6-xylylcarbamoyl)methyl)-, benzoate
Benzyldiethyl[(2,6-dimethylphenylcarbamoyl)methyl]ammonium Benzoate
Denatonii benzoas
N-(2-((2,6-Dimethylphenyl)amino)-2-oxoethyl)-N,N-diethylbenzeneme- thanaminium benzoate
Benzoato de denatonio
Benzoate de denatonium
2-[diethylbenzylamino]-N-(2,6-dimethylphenyl)acetamide, benzoic acid
Benzenemethanaminium, N-(2-((2,6-dimethylphenyl)amino)-2-oxoethyl)-N,N-diethyl-, benzoate (1:1)
Benzenemethanaminium, N-[2-[(2,6-dimethylphenyl)amino]-2-oxoethyl]-N,N-diethyl-, benzoate (1:1)
AC1L2EAG
AC1Q5LWT
SCHEMBL49511
MLS002154073
Denatonium benzoate, >=98%
CHEMBL1371493
Denatonium Benzoate 25% in EG
DTXSID8034376
THS 839
VWTINHYPRWEBQY-UHFFFAOYSA-N
HMS1571A03
HMS2093L12
HMS2098A03
HMS2233O05
HMS3373C04
HMS3715A03
Pharmakon1600-01505987
EBD28935
HY-B1146
KS-000001ET
Tox21_110754
Tox21_301587
NSC157658
NSC759299
SBB057812
AKOS015888129
Tox21_110754_1
APN0000341
CCG-213592
CS-4750
MCULE-8272134756
NSC-157658
NSC-759299
Denatonium benzoate, analytical standard
NCGC00017043-01
NCGC00091886-04
NCGC00164432-01
NCGC00255373-01
AC-14888
AN-20948
AS-15511
BC208282
CC-26334
LS-16789
P665
SC-13384
SMR001233385
Ammonium,6-xylylcarbamoyl)methyl]-, benzoate
D2124
FT-0622841
ST24048507
ST51007042
K-8241
A823606
C-22434
I01-0224
Benzyldiethyl(2,6-xylylcarbamoylmethyl)ammonium benzoate
BENZYLDIETHYL [(2,6-XYLYLCARBAMOYL)-AMMONIUM BENZO
Benzyldiethyl(2,6-xylyl-carbamoyl-methyl)-ammonium benzoate
Denatonium benzoate, certified reference material, TraceCERT(R)
benzyl-[2-(2,6-dimethylanilino)-2-oxoethyl]-diethylazanium benzoate
benzyl-[2-(2,6-dimethylanilino)-2-oxoethyl]-diethylazanium;benzoate
benzyl({[(2,6-dimethylphenyl)carbamoyl]methyl})diethylazanium benzoate
benzyl-[(2,6-dimethylphenyl)carbamoylmethyl]-diethyl-azanium benzoate
Benzyl-[(2,6-dimethylphenylcarbamoyl)methyl]-diethylammonium benzoate
benzyl-[2-(2,6-dimethylanilino)-2-oxo-ethyl]-diethyl-ammonium benzoate
Denatonium benzoate, United States Pharmacopeia (USP) Reference Standard
N,N-Diethyl-N-[(2,6-dimethylphenylcarbamoyl)methyl]benzylammonium benzoate
[2-(2,6-dimethylanilino)-2-oxoethyl]-diethyl-(phenylmethyl)ammonium benzoate
Benzenemethanaminium,6-dimethylphenyl)amino]-2-oxoethyl]-N,N-diethyl-, benzoate
Benzenemethanaminium,N-[2-[(2,6-dimethylphenyl)amino]-2-oxoethyl]-N,N-diethyl-, benzoate
N,N-Diethyl-N-[(2,6-dimethylphenyl-carbamoyl)-methyl]-benzyl-ammonium benzoate
N-[2-[(2,6-Dimethylphenyl)amino]-2-oxoethyl]-N,N-diethyl-benzenemethanaminium benzoate
N-benzyl-2-(2,6-dimethylphenylamino)-N,N-diethyl-2-oxoethanaminium benzoate
[2-[(2,6-dimethylphenyl)amino]-2-oxidanylidene-ethyl]-diethyl-(phenylmethyl)azanium benzoate
N,N- paragraph signthornOO>>u-N-[(2,6- paragraph signthorn(1/4)x+/-(1/2)>>u degrees +/->>u(1/4)xo pound>>u)(1/4)x>>u]-UEth>>u-+/-(1/2)(1/4)xEai section sign
N-[2-[(2,6-Dimethylphenyl)amino]-2-oxoethyl]-N,N-diethyl-benzenemethanaminium benzoate; N,N-Diethyl-N-[(2,6-dimethylphenylcarbamoyl)methyl]benzylammonium benzoate; Benzyldiethyl(2,6-xylylcarbamoylmeth
yl)ammonium benzoate
UEth>>u paragraph signthornOO>>u[(2,6- paragraph signthorn(1/4)x+/-(1/2)>>u degrees +/->>u(1/4)xo pound>>u)(1/4)x>>u]i section sign+/-(1/2)(1/4)xEaNI

> <TPSA>
69.2

> <TotalAidCount>
777

> <TotalFormalCharge>
0

> <database>
PubChem Compound

> <matchingCount>
176

> <primaryID>
19518

> <queryTranslation>
7628[CompoundID] OR 244[CompoundID] OR 25059[CompoundID] OR 7618[CompoundID] OR 7641[CompoundID] OR 5053[CompoundID] OR 637511[CompoundID] OR 7714[CompoundID] OR 7762[CompoundID] OR 25429[CompoundID]
OR 8842[CompoundID] OR 7794[CompoundID] OR 637566[CompoundID] OR 7843[CompoundID] OR 174[CompoundID] OR 7870[CompoundID] OR 86102[CompoundID] OR 7888[CompoundID] OR 7896[CompoundID] OR 1140[CompoundID
] OR 8042[CompoundID] OR 8058[CompoundID] OR 8078[CompoundID] OR 8087[CompoundID] OR 8117[CompoundID] OR 8133[CompoundID] OR 115224[CompoundID] OR 8175[CompoundID] OR 8194[CompoundID] OR 445639[Compou
ndID] OR 4944[CompoundID] OR 8294[CompoundID] OR 93541[CompoundID] OR 8360[CompoundID] OR 8363[CompoundID] OR 656612[CompoundID] OR 125098[CompoundID] OR 3352[CompoundID] OR 3303913[CompoundID] OR 648
05[CompoundID] OR 31200[CompoundID] OR 1712058[CompoundID] OR 31236[CompoundID] OR 31239[CompoundID] OR 31265[CompoundID] OR 31266[CompoundID] OR 31276[CompoundID] OR 6950273[CompoundID] OR 518659[Com
poundID] OR 14896[CompoundID] OR 14798[CompoundID] OR 14829[CompoundID] OR 14830[CompoundID] OR 8635[CompoundID] OR 23266[CompoundID] OR 4284[CompoundID] OR 8693[CompoundID] OR 22311[CompoundID] OR 87
59[CompoundID] OR 8785[CompoundID] OR 2723810[CompoundID] OR 8857[CompoundID] OR 3893[CompoundID] OR 9936739[CompoundID] OR 516892[CompoundID] OR 5430[CompoundID] OR 9017[CompoundID] OR 15433[Compound
ID] OR 107720[CompoundID] OR 9552081[CompoundID] OR 164825[CompoundID] OR 10275455[CompoundID] OR 16666[CompoundID] OR 9839306[CompoundID] OR 5282227[CompoundID] OR 23676745[CompoundID] OR 32881[Compo
undID] OR 91581[CompoundID] OR 39800[CompoundID] OR 33344[CompoundID] OR 15962220[CompoundID] OR 33528[CompoundID] OR 5365075[CompoundID] OR 62829[CompoundID] OR 162381[CompoundID] OR 517202[CompoundI
D] OR 6433353[CompoundID] OR 2730[CompoundID] OR 5372405[CompoundID] OR 36081[CompoundID] OR 3120[CompoundID] OR 3017[CompoundID] OR 2969[CompoundID] OR 18827[CompoundID] OR 19518[CompoundID] OR 19658
[CompoundID] OR 38283[CompoundID] OR 2758[CompoundID] OR 10112[CompoundID] OR 10340[CompoundID] OR 712[CompoundID] OR 5794[CompoundID] OR 3347[CompoundID] OR 104150[CompoundID] OR 2912[CompoundID] OR
2450[CompoundID] OR 40326[CompoundID] OR 40585[CompoundID] OR 517055[CompoundID] OR 10913[CompoundID] OR 108242[CompoundID] OR 62097[CompoundID] OR 41679[CompoundID] OR 54680676[CompoundID] OR 62118[C
ompoundID] OR 753[CompoundID] OR 1030[CompoundID] OR 23673837[CompoundID] OR 54678504[CompoundID] OR 11442[CompoundID] OR 11463[CompoundID] OR 22230[CompoundID] OR 440917[CompoundID] OR 6054[CompoundI
D] OR 43234[CompoundID] OR 22629[CompoundID] OR 3039[CompoundID] OR 2735067[CompoundID] OR 6144[CompoundID] OR 702[CompoundID] OR 284[CompoundID] OR 176[CompoundID] OR 91688[CompoundID] OR 22947[Compo
undID] OR 47445[CompoundID] OR 1711973[CompoundID] OR 243[CompoundID] OR 10342051[CompoundID] OR 5281875[CompoundID] OR 3776[CompoundID] OR 6224[CompoundID] OR 104926[CompoundID] OR 8755[CompoundID] O
R 338[CompoundID] OR 123622[CompoundID] OR 23954[CompoundID] OR 6334[CompoundID] OR 2537[CompoundID] OR 24261[CompoundID] OR 23665760[CompoundID] OR 83975[CompoundID] OR 784[CompoundID] OR 24437[Compo
undID] OR 5360315[CompoundID] OR 311[CompoundID] OR 6549[CompoundID] OR 107689[CompoundID] OR 17100[CompoundID] OR 24976875[CompoundID] OR 6654[CompoundID] OR 71245[CompoundID] OR 6442842[CompoundID]
OR 62334[CompoundID] OR 54698175[CompoundID] OR 6328154[CompoundID] OR 24762[CompoundID] OR 440950[CompoundID] OR 7017[CompoundID] OR 5281873[CompoundID] OR 323[CompoundID] OR 5281167[CompoundID] OR 7
175[CompoundID] OR 7292[CompoundID] OR 6335613[CompoundID] OR 7456[CompoundID] OR 7462[CompoundID]

> <resultIndex>
91

> <resultRange>
1-176

> <textQuery>
7628,244,25059,7618,7641,5053,637511,7714,7762,25429,8842,7794,637566,7843,174,7870,86102,7888,7896,1140,8042,8058,8078,8087,8117,8133,115224,8175,8194,445639,4944,8294,93541,8360,8363,656612,125098,3
352,3303913,64805,31200,1712058,31236,31239,31265,31266,31276,6950273,518659,14896,14798,14829,14830,8635,23266,4284,8693,22311,8759,8785,2723810,8857,3893,9936739,516892,5430,9017,15433,107720,955208
1,164825,10275455,16666,9839306,5282227,23676745,32881,91581,39800,33344,15962220,33528,5365075,62829,162381,517202,6433353,2730,5372405,36081,3120,3017,2969,18827,19518,19658,38283,2758,10112,10340,7
12,5794,3347,104150,2912,2450,40326,40585,517055,10913,108242,62097,41679,54680676,62118,753,1030,23673837,54678504,11442,11463,22230,440917,6054,43234,22629,3039,2735067,6144,702,284,176,91688,22947,
47445,1711973,243,10342051,5281875,3776,6224,104926,8755,338,123622,23954,6334,2537,24261,23665760,83975,784,24437,5360315,311,6549,107689,17100,24976875,6654,71245,6442842,62334,54698175,6328154,2476
2,440950,7017,5281873,323,5281167,7175,7292,6335613,7456,7462

$$$$
18,827
  SciTegic10191915303D

 25 24  0  0  1  0            999 V2000
    2.4590    1.6470    2.1030 O   0  0
    2.0210    0.8620    1.0180 C   0  0  3  0  0  0
    0.4940    0.8250    1.0390 C   0  0
    2.6310   -0.5110    1.1130 C   0  0
   -0.0960    0.1210   -0.1840 C   0  0
   -1.6250    0.1210   -0.1840 C   0  0
    3.4710   -0.9080    0.1430 C   0  0
   -2.2150   -0.5860   -1.4040 C   0  0
   -3.7440   -0.5860   -1.4040 C   0  0
    3.4140    1.7780    1.9960 H   0  0
    2.3830    1.3250    0.0980 H   0  0
    0.1330    0.3680    1.9590 H   0  0
    0.0860    1.8300    1.1390 H   0  0
    2.4610   -1.2300    1.9000 H   0  0
    0.2890    0.5590   -1.1040 H   0  0
    0.2890   -0.8960   -0.2660 H   0  0
   -2.0100   -0.3160    0.7380 H   0  0
   -2.0100    1.1370   -0.1020 H   0  0
    3.9800   -1.8590    0.0740 H   0  0
    3.6400   -0.1890   -0.6450 H   0  0
   -1.8300   -0.1480   -2.3260 H   0  0
   -1.8300   -1.6010   -1.4860 H   0  0
   -4.1290   -1.0880   -2.2930 H   0  0
   -4.1290   -1.0880   -0.5180 H   0  0
   -4.1290    0.4340   -1.4040 H   0  0
  1  2  1  0
  2  3  1  0
  2  4  1  0
  3  5  1  0
  4  7  2  0
  5  6  1  0
  6  8  1  0
  8  9  1  0
  1 10  1  0
  2 11  1  0
  3 12  1  0
  3 13  1  0
  4 14  1  0
  5 15  1  0
  5 16  1  0
  6 17  1  0
  6 18  1  0
  7 19  1  0
  7 20  1  0
  8 21  1  0
  8 22  1  0
  9 23  1  0
  9 24  1  0
  9 25  1  0
M  END
> <Name>
18,827

> <OBJECTID>
9223372423405174795

> <ActiveAidCount>
0

> <AtomChiralCount>
1

> <AtomChiralDefCount>
0

> <AtomChiralUndefCount>
1

> <BondChiralCount>
0

> <BondChiralDefCount>
0

> <BondChiralUndefCount>
0

> <CID>
18827

> <CanonicalSmiles>
CCCCCC(C=C)O

> <Complexity>
69

> <CovalentUnitCount>
1

> <CreateDate>
2005/03/26 00:00

> <HeavyAtomCount>
9

> <HydrogenBondAcceptorCount>
1

> <HydrogenBondDonorCount>
1

> <IUPACName>
oct-1-en-3-ol

> <InChI>
InChI=1S/C8H16O/c1-3-5-6-7-8(9)4-2/h4,8-9H,2-3,5-7H2,1H3

> <InChIKey>
VSMOENVRRABVKN-UHFFFAOYSA-N

> <IsomericSmiles>
CCCCCC(C=C)O

> <IsotopeAtomCount>
0

> <MeSHHeading>
1-octen-3-ol

> <MeSHTerm>
1-octen-3-ol, (+-)-isomer
1-octen-3-ol
1-octen-3-ol, (R)-isomer
octenol

> <MolecularFormula>
C8H16O

> <MolecularWeight>
128.21

> <RotatableBondCount>
5

> <Smiles>
OC(C=C)CCCCC

> <SourceCategory>
Chemical Vendors
Legacy Depositors
Research and Development
Curation Efforts
Governmental Organizations
NIH Initiatives
Subscription Services
Journal Publishers

> <Synonym>
1-OCTEN-3-OL
3391-86-4
Oct-1-en-3-ol
3-Hydroxy-1-octene
Amyl vinyl carbinol
Vinyl amyl carbinol
1-Vinylhexanol
Matsutake alcohol
Pentyl vinyl carbinol
Matsuica alcohol
Mushroom alcohol
Octen-3-ol
Vinyl hexanol
Oct-1-ene-3-ol
Amylvinylcarbinol
Pentylvinylcarbinol
octene-1-ol-3
1-Okten-3-ol
1-Okten-3-ol [Czech]
1-Octen-3-ol (natural)
NSC 87563
Matsutake alcohol [Japanese]
FEMA No. 2805
1-Octene-3-ol
EINECS 222-226-0
MFCD00004589
EPA Pesticide Chemical Code 069037
BRN 1744110
1-Octen-3-ol, 98%
AI3-28627
CHEBI:34118
VSMOENVRRABVKN-UHFFFAOYSA-N
n-Oct-1-en-3-ol
Morillol
CCRIS 8804
Matsuika alcohol
Vinyl pentyl carbinol
ACMC-20apfw
n-Amyl vinyl carbinol
1 -Octen-3-ol
1 Octen 3 OL
Nat. 1-Octen-3-ol
AC1L2CVX
ACMC-1CNY7
Flowtron mosquito attractant
DSSTox_CID_15214
DSSTox_RID_79250
DSSTox_GSID_35214
SCHEMBL41968
KSC223I9P
(+/-)-1-octen-3-ol
WLN: QY5&1U1
Jsp006175
CHEMBL3183573
DTXSID3035214
CTK1C3497
1-Octen-3-ol, analytical standard
ACT05316
BCP19092
KS-000008YB
NSC87563
Tox21_302039
ANW-27735
LMFA05000090
LMFA05000712
NSC-87563
AKOS009157412
DS-8600
LS-3002
RTC-020285
TRA0097596
NCGC00255686-01
1-Octen-3-ol, >=98%, FCC, FG
1-Octen-3-ol, natural, >=95%, FG
AK164470
AN-18986
SC-18002
CAS-3391-86-4
DB-003193
TC-020285
FT-0608181
O0159
C14272
1-OCTEN-3-OL, (AMYL VINYL CARBINOL) FCC
I14-1157
I14-1194
Q-100412

> <TPSA>
20.2

> <TotalAidCount>
217

> <TotalFormalCharge>
0

> <XLogP>
2.6

> <database>
PubChem Compound

> <matchingCount>
176

> <primaryID>
18827

> <queryTranslation>
7628[CompoundID] OR 244[CompoundID] OR 25059[CompoundID] OR 7618[CompoundID] OR 7641[CompoundID] OR 5053[CompoundID] OR 637511[CompoundID] OR 7714[CompoundID] OR 7762[CompoundID] OR 25429[CompoundID]
OR 8842[CompoundID] OR 7794[CompoundID] OR 637566[CompoundID] OR 7843[CompoundID] OR 174[CompoundID] OR 7870[CompoundID] OR 86102[CompoundID] OR 7888[CompoundID] OR 7896[CompoundID] OR 1140[CompoundID
] OR 8042[CompoundID] OR 8058[CompoundID] OR 8078[CompoundID] OR 8087[CompoundID] OR 8117[CompoundID] OR 8133[CompoundID] OR 115224[CompoundID] OR 8175[CompoundID] OR 8194[CompoundID] OR 445639[Compou
ndID] OR 4944[CompoundID] OR 8294[CompoundID] OR 93541[CompoundID] OR 8360[CompoundID] OR 8363[CompoundID] OR 656612[CompoundID] OR 125098[CompoundID] OR 3352[CompoundID] OR 3303913[CompoundID] OR 648
05[CompoundID] OR 31200[CompoundID] OR 1712058[CompoundID] OR 31236[CompoundID] OR 31239[CompoundID] OR 31265[CompoundID] OR 31266[CompoundID] OR 31276[CompoundID] OR 6950273[CompoundID] OR 518659[Com
poundID] OR 14896[CompoundID] OR 14798[CompoundID] OR 14829[CompoundID] OR 14830[CompoundID] OR 8635[CompoundID] OR 23266[CompoundID] OR 4284[CompoundID] OR 8693[CompoundID] OR 22311[CompoundID] OR 87
59[CompoundID] OR 8785[CompoundID] OR 2723810[CompoundID] OR 8857[CompoundID] OR 3893[CompoundID] OR 9936739[CompoundID] OR 516892[CompoundID] OR 5430[CompoundID] OR 9017[CompoundID] OR 15433[Compound
ID] OR 107720[CompoundID] OR 9552081[CompoundID] OR 164825[CompoundID] OR 10275455[CompoundID] OR 16666[CompoundID] OR 9839306[CompoundID] OR 5282227[CompoundID] OR 23676745[CompoundID] OR 32881[Compo
undID] OR 91581[CompoundID] OR 39800[CompoundID] OR 33344[CompoundID] OR 15962220[CompoundID] OR 33528[CompoundID] OR 5365075[CompoundID] OR 62829[CompoundID] OR 162381[CompoundID] OR 517202[CompoundI
D] OR 6433353[CompoundID] OR 2730[CompoundID] OR 5372405[CompoundID] OR 36081[CompoundID] OR 3120[CompoundID] OR 3017[CompoundID] OR 2969[CompoundID] OR 18827[CompoundID] OR 19518[CompoundID] OR 19658
[CompoundID] OR 38283[CompoundID] OR 2758[CompoundID] OR 10112[CompoundID] OR 10340[CompoundID] OR 712[CompoundID] OR 5794[CompoundID] OR 3347[CompoundID] OR 104150[CompoundID] OR 2912[CompoundID] OR
2450[CompoundID] OR 40326[CompoundID] OR 40585[CompoundID] OR 517055[CompoundID] OR 10913[CompoundID] OR 108242[CompoundID] OR 62097[CompoundID] OR 41679[CompoundID] OR 54680676[CompoundID] OR 62118[C
ompoundID] OR 753[CompoundID] OR 1030[CompoundID] OR 23673837[CompoundID] OR 54678504[CompoundID] OR 11442[CompoundID] OR 11463[CompoundID] OR 22230[CompoundID] OR 440917[CompoundID] OR 6054[CompoundI
D] OR 43234[CompoundID] OR 22629[CompoundID] OR 3039[CompoundID] OR 2735067[CompoundID] OR 6144[CompoundID] OR 702[CompoundID] OR 284[CompoundID] OR 176[CompoundID] OR 91688[CompoundID] OR 22947[Compo
undID] OR 47445[CompoundID] OR 1711973[CompoundID] OR 243[CompoundID] OR 10342051[CompoundID] OR 5281875[CompoundID] OR 3776[CompoundID] OR 6224[CompoundID] OR 104926[CompoundID] OR 8755[CompoundID] O
R 338[CompoundID] OR 123622[CompoundID] OR 23954[CompoundID] OR 6334[CompoundID] OR 2537[CompoundID] OR 24261[CompoundID] OR 23665760[CompoundID] OR 83975[CompoundID] OR 784[CompoundID] OR 24437[Compo
undID] OR 5360315[CompoundID] OR 311[CompoundID] OR 6549[CompoundID] OR 107689[CompoundID] OR 17100[CompoundID] OR 24976875[CompoundID] OR 6654[CompoundID] OR 71245[CompoundID] OR 6442842[CompoundID]
OR 62334[CompoundID] OR 54698175[CompoundID] OR 6328154[CompoundID] OR 24762[CompoundID] OR 440950[CompoundID] OR 7017[CompoundID] OR 5281873[CompoundID] OR 323[CompoundID] OR 5281167[CompoundID] OR 7
175[CompoundID] OR 7292[CompoundID] OR 6335613[CompoundID] OR 7456[CompoundID] OR 7462[CompoundID]

> <resultIndex>
92

> <resultRange>
1-176

> <textQuery>
7628,244,25059,7618,7641,5053,637511,7714,7762,25429,8842,7794,637566,7843,174,7870,86102,7888,7896,1140,8042,8058,8078,8087,8117,8133,115224,8175,8194,445639,4944,8294,93541,8360,8363,656612,125098,3
352,3303913,64805,31200,1712058,31236,31239,31265,31266,31276,6950273,518659,14896,14798,14829,14830,8635,23266,4284,8693,22311,8759,8785,2723810,8857,3893,9936739,516892,5430,9017,15433,107720,955208
1,164825,10275455,16666,9839306,5282227,23676745,32881,91581,39800,33344,15962220,33528,5365075,62829,162381,517202,6433353,2730,5372405,36081,3120,3017,2969,18827,19518,19658,38283,2758,10112,10340,7
12,5794,3347,104150,2912,2450,40326,40585,517055,10913,108242,62097,41679,54680676,62118,753,1030,23673837,54678504,11442,11463,22230,440917,6054,43234,22629,3039,2735067,6144,702,284,176,91688,22947,
47445,1711973,243,10342051,5281875,3776,6224,104926,8755,338,123622,23954,6334,2537,24261,23665760,83975,784,24437,5360315,311,6549,107689,17100,24976875,6654,71245,6442842,62334,54698175,6328154,2476
2,440950,7017,5281873,323,5281167,7175,7292,6335613,7456,7462

$$$$
17,100
  SciTegic10191915303D

 29 29  0  0  1  0            999 V2000
    1.3850    2.3240   -0.8730 O   0  0
    0.3830    0.3320   -0.4020 C   0  0  3  0  0  0
    1.6080    1.1890   -0.0680 C   0  0
    0.5370   -1.1020    0.1370 C   0  0
   -0.9100    0.9570    0.1370 C   0  0
   -1.9490   -1.3630   -0.1020 C   0  0
   -0.7340   -1.9220    0.0720 C   0  0
   -2.1330    0.1310   -0.2830 C   0  0
    1.6330    1.6370    1.3940 C   0  0
    2.9200    0.5390   -0.5080 C   0  0
   -3.1840   -2.2270   -0.1250 C   0  0
    1.6000    2.0740   -1.7850 H   0  0
    0.3030    0.2810   -1.4900 H   0  0
    1.3260   -1.6190   -0.4120 H   0  0
    0.8610   -1.0660    1.1780 H   0  0
   -1.0180    1.9820   -0.2210 H   0  0
   -0.8610    1.0140    1.2270 H   0  0
   -0.6560   -2.9940    0.1700 H   0  0
   -2.3480    0.3200   -1.3360 H   0  0
   -3.0100    0.4630    0.2730 H   0  0
    0.8110    2.3160    1.6250 H   0  0
    2.5650    2.1520    1.6230 H   0  0
    1.5530    0.7790    2.0610 H   0  0
    2.8690    0.1780   -1.5350 H   0  0
    3.1640   -0.3090    0.1310 H   0  0
    3.7420    1.2520   -0.4450 H   0  0
   -2.9730   -3.1860    0.3520 H   0  0
   -4.0080   -1.7090    0.3630 H   0  0
   -3.4770   -2.4260   -1.1540 H   0  0
  1  3  1  0
  2  3  1  0
  2  4  1  0
  2  5  1  0
  3  9  1  0
  3 10  1  0
  4  7  1  0
  5  8  1  0
  6  7  2  0
  6  8  1  0
  6 11  1  0
  1 12  1  0
  2 13  1  0
  4 14  1  0
  4 15  1  0
  5 16  1  0
  5 17  1  0
  7 18  1  0
  8 19  1  0
  8 20  1  0
  9 21  1  0
  9 22  1  0
  9 23  1  0
 10 24  1  0
 10 25  1  0
 10 26  1  0
 11 27  1  0
 11 28  1  0
 11 29  1  0
M  END
> <Name>
17,100

> <OBJECTID>
9223372427700142091

> <ActiveAidCount>
6

> <AtomChiralCount>
1

> <AtomChiralDefCount>
0

> <AtomChiralUndefCount>
1

> <BondChiralCount>
0

> <BondChiralDefCount>
0

> <BondChiralUndefCount>
0

> <CID>
17100

> <CanonicalSmiles>
CC1=CCC(CC1)C(C)(C)O

> <Complexity>
168

> <CovalentUnitCount>
1

> <CreateDate>
2005/03/26 00:00

> <HeavyAtomCount>
11

> <HydrogenBondAcceptorCount>
1

> <HydrogenBondDonorCount>
1

> <IUPACName>
2-(4-methylcyclohex-3-en-1-yl)propan-2-ol

> <InChI>
InChI=1S/C10H18O/c1-8-4-6-9(7-5-8)10(2,3)11/h4,9,11H,5-7H2,1-3H3

> <InChIKey>
WUOACPNHFRMFPN-UHFFFAOYSA-N

> <IsomericSmiles>
CC1=CCC(CC1)C(C)(C)O

> <IsotopeAtomCount>
0

> <MeSHHeading>
alpha-terpineol

> <MeSHTerm>
DL-alpha-terpineol
alpha-terpineol
alpha-terpineol, sodium salt
1-alpha-terpineol
D-alpha-terpineol
p-menth-1-en-8-ol

> <MolecularFormula>
C10H18O

> <MolecularWeight>
154.25

> <RotatableBondCount>
1

> <Smiles>
OC(C)(C)C1CCC(C)=CC1

> <SourceCategory>
Chemical Vendors
Legacy Depositors
Research and Development
Curation Efforts
Governmental Organizations
NIH Initiatives
Subscription Services
Journal Publishers

> <Synonym>
alpha-TERPINEOL
Terpineol
98-55-5
p-Menth-1-en-8-ol
2-(4-methylcyclohex-3-en-1-yl)propan-2-ol
dl-alpha-Terpineol
1-p-Menthen-8-ol
1-Menthene-8-ol
Terpineol schlechthin
CARVOMENTHENOL
Terpenol
8000-41-7
alpha,alpha,4-Trimethyl-3-cyclohexene-1-methanol
.alpha.-Terpineol
Terpilenol, alpha-
Terpineol 350
1-Methyl-4-isopropyl-1-cyclohexen-8-ol
2-(4-Methyl-3-cyclohexenyl)-2-propanol
TERPINEOLS
(S)-(-)-Terpineol
Terpene alcohol
FEMA Number 3045
1-Methyl-4-isopropyl-1-cyclohexene-8-ol
alpha-Terpineol (natural)
MFCD00001557
FEMA No. 3045
alpha-Terpinenol
CCRIS 3204
HSDB 5316
Mixture of p-methenols
1-alpha-terpineol
EINECS 202-680-6
EINECS 219-448-5
MFCD00166983
NSC 21449
PC 593
3-Cyclohexene-1-methanol, alpha,alpha,4-trimethyl-
BRN 1906604
AI3-00275
CHEBI:22469
WUOACPNHFRMFPN-UHFFFAOYSA-N
Alpha-Terpineol, Mixture of Isomers
3-Cyclohexene-1-methanol, .alpha.,.alpha.,4-trimethyl-
NCGC00164431-01
2-(4-methylcyclohex-3-enyl)propan-2-ol
alpha-Terpineol, 97+%
DSSTox_CID_6625
DSSTox_RID_79596
DSSTox_GSID_40775
8006-39-1
(1)-alpha,alpha,4-Trimethylcyclohex-3-ene-1-methanol
a-Terpineol
alpha-Terpineol, analytical standard
Menth-1-en-8-ol
CAS-8000-41-7
3-Cyclohexene-1-methanol,.alpha.4-trimethyl-
Caswell No. 823
alpha-Terpineol, 97%, mixture of alpha- and gamma-terpineol
Terpineol Normal
DL a-terpineol
EINECS 232-268-1
Terpineol (natural)
EPA Pesticide Chemical Code 067005
1-.alpha.-Terpineol
TERPINEOL OR
TERPINEOL, ALPHA
d-1-p-Menthen-8-ol
Terpineol, mixed isomers
Monocyclic terpenealcohols
(+)-.alpha.-Terpineol
p-Menth- 1-en-8-ol
68797-63-7
3-Cyclohexene-1-methanol, .alpha.,.alpha.4-trimethyl-
EC 202-680-6
EC 232-268-1
alpha-Terpineol, AldrichCPR
DSSTox_RID_78167
DSSTox_GSID_26625
SCHEMBL28466
KSC486Q4B
3-Cyclohexene-1-methanol, .alpha.,.alpha.,4-trimethyl-, (1R)-
3-Cyclohexene-1-methanol, .alpha.,.alpha.,4-trimethyl-, (1S)-
3-Cyclohexene-1-methanol, .alpha.,.alpha.,4-trimethyl-, (S)-
AC1L29B5
CHEMBL449810
DTXSID5026625
CTK3I6840
KS-00000FMH
NSC21449
Tox21_112118
Tox21_200112
Tox21_302298
c0669
NSC-21449
NSC403665
SBB061191
3-Cyclohexene-1-methanol, .alpha.,.alpha.,4-trimethyl-, sodium salt, (1S)-
4-Trimethyl-3-cyclohexene-1-methanol
AKOS015840815
alpha-Terpineol, 90%, technical grade
LS-3106
MCULE-9798755896
NSC-403665
CAS-98-55-5
NCGC00248528-01
NCGC00255464-01
NCGC00257666-01
AK122298
AK608361
AN-18294
AN-19422
AN-24486
SC-46794
LS-148797
TR-030336
alpha-Terpineol 1000 microg/mL in n-Hexane
FT-0622202
FT-0698995
ST24039469
ST50824481
V0385
2-(4-methyl-1-cyclohex-3-enyl)-propan-2-ol
C16772
(1R)-a,a,4-trimethyl-3-cyclohexene-1-methanol
SR-01000944873
J-500272
SR-01000944873-1
W-100076
I14-51686
F0001-2319
alpha-Terpineol, primary pharmaceutical reference standard
3-Cyclohexene-1-methanol, .alpha.,.alpha.,4-trimethyl-, sodium salt (1:1), (1S)-
22347-88-2

> <TPSA>
20.2

> <TotalAidCount>
291

> <TotalFormalCharge>
0

> <XLogP>
1.8

> <database>
PubChem Compound

> <matchingCount>
176

> <primaryID>
17100

> <queryTranslation>
7628[CompoundID] OR 244[CompoundID] OR 25059[CompoundID] OR 7618[CompoundID] OR 7641[CompoundID] OR 5053[CompoundID] OR 637511[CompoundID] OR 7714[CompoundID] OR 7762[CompoundID] OR 25429[CompoundID]
OR 8842[CompoundID] OR 7794[CompoundID] OR 637566[CompoundID] OR 7843[CompoundID] OR 174[CompoundID] OR 7870[CompoundID] OR 86102[CompoundID] OR 7888[CompoundID] OR 7896[CompoundID] OR 1140[CompoundID
] OR 8042[CompoundID] OR 8058[CompoundID] OR 8078[CompoundID] OR 8087[CompoundID] OR 8117[CompoundID] OR 8133[CompoundID] OR 115224[CompoundID] OR 8175[CompoundID] OR 8194[CompoundID] OR 445639[Compou
ndID] OR 4944[CompoundID] OR 8294[CompoundID] OR 93541[CompoundID] OR 8360[CompoundID] OR 8363[CompoundID] OR 656612[CompoundID] OR 125098[CompoundID] OR 3352[CompoundID] OR 3303913[CompoundID] OR 648
05[CompoundID] OR 31200[CompoundID] OR 1712058[CompoundID] OR 31236[CompoundID] OR 31239[CompoundID] OR 31265[CompoundID] OR 31266[CompoundID] OR 31276[CompoundID] OR 6950273[CompoundID] OR 518659[Com
poundID] OR 14896[CompoundID] OR 14798[CompoundID] OR 14829[CompoundID] OR 14830[CompoundID] OR 8635[CompoundID] OR 23266[CompoundID] OR 4284[CompoundID] OR 8693[CompoundID] OR 22311[CompoundID] OR 87
59[CompoundID] OR 8785[CompoundID] OR 2723810[CompoundID] OR 8857[CompoundID] OR 3893[CompoundID] OR 9936739[CompoundID] OR 516892[CompoundID] OR 5430[CompoundID] OR 9017[CompoundID] OR 15433[Compound
ID] OR 107720[CompoundID] OR 9552081[CompoundID] OR 164825[CompoundID] OR 10275455[CompoundID] OR 16666[CompoundID] OR 9839306[CompoundID] OR 5282227[CompoundID] OR 23676745[CompoundID] OR 32881[Compo
undID] OR 91581[CompoundID] OR 39800[CompoundID] OR 33344[CompoundID] OR 15962220[CompoundID] OR 33528[CompoundID] OR 5365075[CompoundID] OR 62829[CompoundID] OR 162381[CompoundID] OR 517202[CompoundI
D] OR 6433353[CompoundID] OR 2730[CompoundID] OR 5372405[CompoundID] OR 36081[CompoundID] OR 3120[CompoundID] OR 3017[CompoundID] OR 2969[CompoundID] OR 18827[CompoundID] OR 19518[CompoundID] OR 19658
[CompoundID] OR 38283[CompoundID] OR 2758[CompoundID] OR 10112[CompoundID] OR 10340[CompoundID] OR 712[CompoundID] OR 5794[CompoundID] OR 3347[CompoundID] OR 104150[CompoundID] OR 2912[CompoundID] OR
2450[CompoundID] OR 40326[CompoundID] OR 40585[CompoundID] OR 517055[CompoundID] OR 10913[CompoundID] OR 108242[CompoundID] OR 62097[CompoundID] OR 41679[CompoundID] OR 54680676[CompoundID] OR 62118[C
ompoundID] OR 753[CompoundID] OR 1030[CompoundID] OR 23673837[CompoundID] OR 54678504[CompoundID] OR 11442[CompoundID] OR 11463[CompoundID] OR 22230[CompoundID] OR 440917[CompoundID] OR 6054[CompoundI
D] OR 43234[CompoundID] OR 22629[CompoundID] OR 3039[CompoundID] OR 2735067[CompoundID] OR 6144[CompoundID] OR 702[CompoundID] OR 284[CompoundID] OR 176[CompoundID] OR 91688[CompoundID] OR 22947[Compo
undID] OR 47445[CompoundID] OR 1711973[CompoundID] OR 243[CompoundID] OR 10342051[CompoundID] OR 5281875[CompoundID] OR 3776[CompoundID] OR 6224[CompoundID] OR 104926[CompoundID] OR 8755[CompoundID] O
R 338[CompoundID] OR 123622[CompoundID] OR 23954[CompoundID] OR 6334[CompoundID] OR 2537[CompoundID] OR 24261[CompoundID] OR 23665760[CompoundID] OR 83975[CompoundID] OR 784[CompoundID] OR 24437[Compo
undID] OR 5360315[CompoundID] OR 311[CompoundID] OR 6549[CompoundID] OR 107689[CompoundID] OR 17100[CompoundID] OR 24976875[CompoundID] OR 6654[CompoundID] OR 71245[CompoundID] OR 6442842[CompoundID]
OR 62334[CompoundID] OR 54698175[CompoundID] OR 6328154[CompoundID] OR 24762[CompoundID] OR 440950[CompoundID] OR 7017[CompoundID] OR 5281873[CompoundID] OR 323[CompoundID] OR 5281167[CompoundID] OR 7
175[CompoundID] OR 7292[CompoundID] OR 6335613[CompoundID] OR 7456[CompoundID] OR 7462[CompoundID]

> <resultIndex>
93

> <resultRange>
1-176

> <textQuery>
7628,244,25059,7618,7641,5053,637511,7714,7762,25429,8842,7794,637566,7843,174,7870,86102,7888,7896,1140,8042,8058,8078,8087,8117,8133,115224,8175,8194,445639,4944,8294,93541,8360,8363,656612,125098,3
352,3303913,64805,31200,1712058,31236,31239,31265,31266,31276,6950273,518659,14896,14798,14829,14830,8635,23266,4284,8693,22311,8759,8785,2723810,8857,3893,9936739,516892,5430,9017,15433,107720,955208
1,164825,10275455,16666,9839306,5282227,23676745,32881,91581,39800,33344,15962220,33528,5365075,62829,162381,517202,6433353,2730,5372405,36081,3120,3017,2969,18827,19518,19658,38283,2758,10112,10340,7
12,5794,3347,104150,2912,2450,40326,40585,517055,10913,108242,62097,41679,54680676,62118,753,1030,23673837,54678504,11442,11463,22230,440917,6054,43234,22629,3039,2735067,6144,702,284,176,91688,22947,
47445,1711973,243,10342051,5281875,3776,6224,104926,8755,338,123622,23954,6334,2537,24261,23665760,83975,784,24437,5360315,311,6549,107689,17100,24976875,6654,71245,6442842,62334,54698175,6328154,2476
2,440950,7017,5281873,323,5281167,7175,7292,6335613,7456,7462

$$$$
16,666
  SciTegic10191915303D

 31 31  0  0  1  0            999 V2000
    2.0120    1.8810    0.1800 O   0  0
    0.8990   -0.2700    0.2720 C   0  0  2  0  0  0
    0.7740    1.2380   -0.0580 C   0  0  1  0  0  0
   -0.3240    1.9280    0.7700 C   0  0
    1.5450   -1.0290   -0.8940 C   0  0
   -0.4630   -0.8910    0.6560 C   0  0
   -1.7210    1.3220    0.4940 C   0  0  1  0  0  0
   -1.6430   -0.1450    0.0200 C   0  0
    2.1860   -2.3460   -0.4570 C   0  0
    0.6020   -1.1970   -2.0860 C   0  0
   -2.6270    1.4690    1.7210 C   0  0
    2.6110    1.6230   -0.5410 H   0  0
    1.5490   -0.4020    1.1370 H   0  0
    0.5430    1.3730   -1.1170 H   0  0
   -0.3500    3.0000    0.5680 H   0  0
   -0.0800    1.8180    1.8280 H   0  0
    2.2720   -0.3990   -1.4080 H   0  0
   -0.4960   -1.9490    0.3930 H   0  0
   -0.5780   -0.8540    1.7400 H   0  0
   -2.1840    1.8930   -0.3120 H   0  0
   -2.5800   -0.6660    0.2230 H   0  0
   -1.5210   -0.1640   -1.0640 H   0  0
    2.6800   -2.8520   -1.2870 H   0  0
    1.4360   -3.0250   -0.0530 H   0  0
    2.9320   -2.1740    0.3180 H   0  0
    1.1250   -1.6450   -2.9320 H   0  0
   -0.2460   -1.8280   -1.8180 H   0  0
    0.2110   -0.2320   -2.4080 H   0  0
   -3.6330    1.0980    1.5290 H   0  0
   -2.7070    2.5140    2.0200 H   0  0
   -2.2230    0.9120    2.5670 H   0  0
  3  1  1  0
  2  3  1  0
  2  5  1  0
  2  6  1  0
  3  4  1  0
  4  7  1  0
  5  9  1  0
  5 10  1  0
  6  8  1  0
  7  8  1  0
  7 11  1  0
  1 12  1  0
  2 13  1  0
  3 14  1  0
  4 15  1  0
  4 16  1  0
  5 17  1  0
  6 18  1  0
  6 19  1  0
  7 20  1  0
  8 21  1  0
  8 22  1  0
  9 23  1  0
  9 24  1  0
  9 25  1  0
 10 26  1  0
 10 27  1  0
 10 28  1  0
 11 29  1  0
 11 30  1  0
 11 31  1  0
M  END
> <Name>
16,666

> <OBJECTID>
9223372431995109387

> <ActiveAidCount>
13

> <AtomChiralCount>
3

> <AtomChiralDefCount>
3

> <AtomChiralUndefCount>
0

> <BondChiralCount>
0

> <BondChiralDefCount>
0

> <BondChiralUndefCount>
0

> <CID>
16666

> <CanonicalSmiles>
CC1CCC(C(C1)O)C(C)C

> <Complexity>
120

> <CovalentUnitCount>
1

> <CreateDate>
2004/09/16 00:00

> <HeavyAtomCount>
11

> <HydrogenBondAcceptorCount>
1

> <HydrogenBondDonorCount>
1

> <IUPACName>
(1R,2S,5R)-5-methyl-2-propan-2-ylcyclohexan-1-ol

> <InChI>
InChI=1S/C10H20O/c1-7(2)9-5-4-8(3)6-10(9)11/h7-11H,4-6H2,1-3H3/t8-,9+,10-/m1/s1

> <InChIKey>
NOOLISFMXDJSKH-KXUCPTDWSA-N

> <IsomericSmiles>
C[C@@H]1CC[C@H]([C@@H](C1)O)C(C)C

> <IsotopeAtomCount>
0

> <MolecularFormula>
C10H20O

> <MolecularWeight>
156.26

> <RotatableBondCount>
1

> <Smiles>
O[C@@H]1C[C@H](C)CC[C@H]1C(C)C

> <SourceCategory>
Chemical Vendors
Legacy Depositors
Research and Development
Curation Efforts
Governmental Organizations
NIH Initiatives
Subscription Services
Journal Publishers

> <Synonym>
l-Menthol
(-)-menthol
2216-51-5
Levomenthol
Menthacamphor
Menthomenthol
l-(-)-Menthol
Peppermint camphor
(1R,2S,5R)-2-Isopropyl-5-methylcyclohexanol
U.S.P. Menthol
Levomentholum
Menthol racemic
Hexahydrothymol
d,l-Menthol
(-)-Menthyl alcohol
(1r,2s,5r)-(-)-menthol
Menthol natural
(1R)-(-)-Menthol
D-(-)-Menthol
Headache crystals
(R)-(-)-Menthol
89-78-1
Menthol (VAN)
l-Menthol (natural)
(+-)-Menthol
(-)-(1R,3R,4S)-Menthol
I-menthol
Racementhol
p-Menthan-3-ol
(-)-trans-p-Menthan-cis-ol
1-Menthol
Levomenthol [INN:BAN]
Racementhol [INN:BAN]
(L)-MENTHOL
Menthol, dl-
Menthol natural, brazilian
Menthol, l-
Racementol [INN-Spanish]
Levomentholum [INN-Latin]
Menthol racemique [French]
Racementholum [INN-Latin]
Tra-kill tracheal mite killer
rac-Menthol
Cyclohexanol, 5-methyl-2-(1-methylethyl)-, (1R,2S,5R)-
NCI-C50000
UNII-BZ1R15MTK7
NSC 62788
Menthol, (1R,3R,4S)-(-)-
CCRIS 375
Menthol(-)
Racemic menthol
FEMA No. 2665
CCRIS 3728
CCRIS 4666
(1R,2S,5R)-rel-2-Isopropyl-5-methylcyclohexanol
HSDB 5662
(1R,2S,5R)-5-methyl-2-(propan-2-yl)cyclohexan-1-ol
NSC 2603
EINECS 201-939-0
EINECS 218-690-9
EINECS 239-388-3
MFCD00062979
BRN 1902288
BRN 3194263
BZ1R15MTK7
(+-)-(1R*,3R*,4S*)-Menthol
menthol crystals
AI3-52408
CHEMBL470670
CHEBI:15409
(1R,2S,5R)-Menthol
3-p-Menthanol
NSC2603
(1R,2S,5R)-2-isopropyl-5-methyl-cyclohexanol
NOOLISFMXDJSKH-KXUCPTDWSA-N
(1R-(1-alpha,2-beta,5-alpha))-5-Methyl-2-(1-methylethyl)cyclohexanol
(1R,2S,5R)-2-isopropyl-5-methylcyclohexan-1-ol
L(-)-Menthol
(1R,2S,5R)-5-methyl-2-(1-methylethyl)cyclohexanol
(1R,2S,5R)-5-methyl-2-propan-2-ylcyclohexan-1-ol
Racementholum
Thymomenthol
Racementol
5-Methyl-2-(1-methylethyl)cyclohexanol, (1alpha,2beta,5alpha)-
DSSTox_CID_2180
Cyclohexanol, 5-methyl-2-(1-methylethyl)-, (1R,2S,5R)-rel-
Menthol racemique
Cyclohexanol, 5-methyl-2-(1-methylethyl)-, [1R-(1.alpha.,2.beta.,5.alpha.)]-
DSSTox_RID_75798
DSSTox_RID_76516
DSSTox_GSID_20805
DSSTox_GSID_22180
HSDB 593
L(-)-Menthol, 99.5%
C10H20O
Menthol, cis-1,3,trans-1,4-
Cyclohexanol, 5-methyl-2-(1-methylethyl)-, (1R,3R,4S)-
Cyclohexanol, 5-methyl-2-(1-methylethyl)-, (1alpha,2beta,5alpha)-
Cyclohexanol, 5-methyl-2-(1-methylethyl)-, (1R-(1alpha,2beta,5alpha))-
CAS-89-78-1
CAS-2216-51-5
l-Menthol (TN)
SR-05000001936
(-)-p-Menthan-3-ol
(1R,3R,4S)-(-)-MENTHOL
levomentol
ss-Bisabolol
Laevo-Menthol
1R-Menthol
1 -menthol
NCGC00159382-02
98167-53-4
dextro,laevo-menthol
Menthol Crystals USP
PubChem7972
Menthol, (1alpha,2beta,5alpha)-Isomer
l-Menthol (JP17)
Spectrum_000305
Spectrum2_000855
Spectrum3_001561
Spectrum5_001060
M0545
Menthol,3,trans-1,4-
EC 201-939-0
EC 218-690-9
AC1L28FR
AC1Q1NQ2
SCHEMBL4613
BSPBio_003062
KBioSS_000785
2-06-00-00052 (Beilstein Handbook Reference)
4-06-00-00151 (Beilstein Handbook Reference)
MLS002207256
ARONIS27036
DivK1c_000820
SPECTRUM1503134
Menthol,3R,4S)-(-)-
SPBio_000869
GTPL2430
DTXSID1020805
DTXSID1022180
(-)-Menthol, USP, 97%
CTK5H9748
HMS502I22
KBio1_000820
KBio2_000785
KBio2_003353
KBio2_005921
KBio3_002562
NOOLISFMXDJSKH-KXUCPTDWSA-
(-)-Menthol, analytical standard
NINDS_000820
HMS1922G13
HMS2092L14
Pharmakon1600-01503134
CS-M3737
Cyclohexanol, 2-isopropyl-5-methyl
NSC-2603
NSC62788
ZINC1482164
L-Menthol, >=99%, FCC, FG
Tox21_111620
Tox21_201823
Tox21_201919
Tox21_202608
Tox21_302999
Tox21_303028
WLN: L6TJ AY1&1 BQ D1
BDBM50318482
CCG-40300
Cyclohexanol, 2-isopropyl-5-methyl-
NSC-62788
NSC758395
s4714
AKOS016842647
(1R, 2S, 5R-)-(-)-Menthol
BS-3863
DB00825
EBD2156737
LMPR0102090001
LS-2353
MCULE-8181548788
MP-2129
NSC-758395
SDCCGMLS-0066659.P001
1-iso propyl-4-methyl cyclohexan-2-ol
IDI1_000820
WLN: L6TJ AY1&1 DQ D1 -L
NCGC00164247-01
NCGC00164247-02
NCGC00164247-03
NCGC00256525-01
NCGC00256561-01
NCGC00259372-01
NCGC00259468-01
NCGC00260156-01
AJ-26316
AN-20763
CJ-05091
CJ-23654
D-(-)-Phenylglycine Dane Potassium Salt
HY-75161
LS-89533
SC-02557
SC-18117
SMR001306785
L-Menthol, natural, >=99%, FCC, FG
SBI-0051777.P002
AB1011830
ST2407841
TR-030715
FT-0604399
N1950
C00400
Cyclohexanol, (1.alpha.,2.beta.,5.alpha.)-
D00064
AB00052320_02
L-Menthol|Levomenthol|Menthomenthol|Menthacamphor
(1R,2S,5R)-(-)-Menthol, >=99%, sublimed
I06-1216
Q-201316
SR-05000001936-1
SR-05000001936-2
(-)-Menthol, primary pharmaceutical reference standard
(1R,2S,5R)-(-)-Menthol, ReagentPlus(R), 99%
2-Isopropyl-5-methylcyclohexanol-, (1R,2S,5R)- #
Cyclohexanol, [1R-(1.alpha.,2.beta.,5.alpha.)]-
(1R,2S,5R)-5-methyl-2-propan-2-yl-cyclohexan-1-ol
Z1698549655
(1R,2S,5R)-(-)-Menthol, Vetec(TM) reagent grade, 98%
6C6A4A8C-A054-468C-A1F0-F29E39838CF2
UNII-YS08XHA860 component NOOLISFMXDJSKH-KXUCPTDWSA-N
(1alpha,2beta,5alpha)-5-methyl-2(1-methylethyl)cyclohexanol
(1R, 2S, 5R)-5-methyl-2-(1-methylethyl)cyclohexyl alcohol
Menthol, United States Pharmacopeia (USP) Reference Standard
L-Menthol, Pharmaceutical Secondary Standard; Certified Reference Material
(-)-Menthol, puriss., meets analytical specification of Ph. Eur., BP, USP, 98.0-102.0%
(1R-(1-.alpha.,2-.beta.,5-.alpha.))-5-Methyl-2-(1-methylethyl)cyclohexanol
(1R,2S,5R)-2-Isopropyl-5-methylcyclohexanol; 5-Methyl-2-(1-methylethyl)cyclohexanol; (-)-p-Menthan-3-ol; (1R,2S,5R)-(?)-Menthol
InChI=1/C10H20O/c1-7(2)9-5-4-8(3)6-10(9)11/h7-11H,4-6H2,1-3H3/t8-,9+,10-/m1/s1

> <TPSA>
20.2

> <TotalAidCount>
513

> <TotalFormalCharge>
0

> <XLogP>
3

> <database>
PubChem Compound

> <matchingCount>
176

> <primaryID>
16666

> <queryTranslation>
7628[CompoundID] OR 244[CompoundID] OR 25059[CompoundID] OR 7618[CompoundID] OR 7641[CompoundID] OR 5053[CompoundID] OR 637511[CompoundID] OR 7714[CompoundID] OR 7762[CompoundID] OR 25429[CompoundID]
OR 8842[CompoundID] OR 7794[CompoundID] OR 637566[CompoundID] OR 7843[CompoundID] OR 174[CompoundID] OR 7870[CompoundID] OR 86102[CompoundID] OR 7888[CompoundID] OR 7896[CompoundID] OR 1140[CompoundID
] OR 8042[CompoundID] OR 8058[CompoundID] OR 8078[CompoundID] OR 8087[CompoundID] OR 8117[CompoundID] OR 8133[CompoundID] OR 115224[CompoundID] OR 8175[CompoundID] OR 8194[CompoundID] OR 445639[Compou
ndID] OR 4944[CompoundID] OR 8294[CompoundID] OR 93541[CompoundID] OR 8360[CompoundID] OR 8363[CompoundID] OR 656612[CompoundID] OR 125098[CompoundID] OR 3352[CompoundID] OR 3303913[CompoundID] OR 648
05[CompoundID] OR 31200[CompoundID] OR 1712058[CompoundID] OR 31236[CompoundID] OR 31239[CompoundID] OR 31265[CompoundID] OR 31266[CompoundID] OR 31276[CompoundID] OR 6950273[CompoundID] OR 518659[Com
poundID] OR 14896[CompoundID] OR 14798[CompoundID] OR 14829[CompoundID] OR 14830[CompoundID] OR 8635[CompoundID] OR 23266[CompoundID] OR 4284[CompoundID] OR 8693[CompoundID] OR 22311[CompoundID] OR 87
59[CompoundID] OR 8785[CompoundID] OR 2723810[CompoundID] OR 8857[CompoundID] OR 3893[CompoundID] OR 9936739[CompoundID] OR 516892[CompoundID] OR 5430[CompoundID] OR 9017[CompoundID] OR 15433[Compound
ID] OR 107720[CompoundID] OR 9552081[CompoundID] OR 164825[CompoundID] OR 10275455[CompoundID] OR 16666[CompoundID] OR 9839306[CompoundID] OR 5282227[CompoundID] OR 23676745[CompoundID] OR 32881[Compo
undID] OR 91581[CompoundID] OR 39800[CompoundID] OR 33344[CompoundID] OR 15962220[CompoundID] OR 33528[CompoundID] OR 5365075[CompoundID] OR 62829[CompoundID] OR 162381[CompoundID] OR 517202[CompoundI
D] OR 6433353[CompoundID] OR 2730[CompoundID] OR 5372405[CompoundID] OR 36081[CompoundID] OR 3120[CompoundID] OR 3017[CompoundID] OR 2969[CompoundID] OR 18827[CompoundID] OR 19518[CompoundID] OR 19658
[CompoundID] OR 38283[CompoundID] OR 2758[CompoundID] OR 10112[CompoundID] OR 10340[CompoundID] OR 712[CompoundID] OR 5794[CompoundID] OR 3347[CompoundID] OR 104150[CompoundID] OR 2912[CompoundID] OR
2450[CompoundID] OR 40326[CompoundID] OR 40585[CompoundID] OR 517055[CompoundID] OR 10913[CompoundID] OR 108242[CompoundID] OR 62097[CompoundID] OR 41679[CompoundID] OR 54680676[CompoundID] OR 62118[C
ompoundID] OR 753[CompoundID] OR 1030[CompoundID] OR 23673837[CompoundID] OR 54678504[CompoundID] OR 11442[CompoundID] OR 11463[CompoundID] OR 22230[CompoundID] OR 440917[CompoundID] OR 6054[CompoundI
D] OR 43234[CompoundID] OR 22629[CompoundID] OR 3039[CompoundID] OR 2735067[CompoundID] OR 6144[CompoundID] OR 702[CompoundID] OR 284[CompoundID] OR 176[CompoundID] OR 91688[CompoundID] OR 22947[Compo
undID] OR 47445[CompoundID] OR 1711973[CompoundID] OR 243[CompoundID] OR 10342051[CompoundID] OR 5281875[CompoundID] OR 3776[CompoundID] OR 6224[CompoundID] OR 104926[CompoundID] OR 8755[CompoundID] O
R 338[CompoundID] OR 123622[CompoundID] OR 23954[CompoundID] OR 6334[CompoundID] OR 2537[CompoundID] OR 24261[CompoundID] OR 23665760[CompoundID] OR 83975[CompoundID] OR 784[CompoundID] OR 24437[Compo
undID] OR 5360315[CompoundID] OR 311[CompoundID] OR 6549[CompoundID] OR 107689[CompoundID] OR 17100[CompoundID] OR 24976875[CompoundID] OR 6654[CompoundID] OR 71245[CompoundID] OR 6442842[CompoundID]
OR 62334[CompoundID] OR 54698175[CompoundID] OR 6328154[CompoundID] OR 24762[CompoundID] OR 440950[CompoundID] OR 7017[CompoundID] OR 5281873[CompoundID] OR 323[CompoundID] OR 5281167[CompoundID] OR 7
175[CompoundID] OR 7292[CompoundID] OR 6335613[CompoundID] OR 7456[CompoundID] OR 7462[CompoundID]

> <resultIndex>
94

> <resultRange>
1-176

> <textQuery>
7628,244,25059,7618,7641,5053,637511,7714,7762,25429,8842,7794,637566,7843,174,7870,86102,7888,7896,1140,8042,8058,8078,8087,8117,8133,115224,8175,8194,445639,4944,8294,93541,8360,8363,656612,125098,3
352,3303913,64805,31200,1712058,31236,31239,31265,31266,31276,6950273,518659,14896,14798,14829,14830,8635,23266,4284,8693,22311,8759,8785,2723810,8857,3893,9936739,516892,5430,9017,15433,107720,955208
1,164825,10275455,16666,9839306,5282227,23676745,32881,91581,39800,33344,15962220,33528,5365075,62829,162381,517202,6433353,2730,5372405,36081,3120,3017,2969,18827,19518,19658,38283,2758,10112,10340,7
12,5794,3347,104150,2912,2450,40326,40585,517055,10913,108242,62097,41679,54680676,62118,753,1030,23673837,54678504,11442,11463,22230,440917,6054,43234,22629,3039,2735067,6144,702,284,176,91688,22947,
47445,1711973,243,10342051,5281875,3776,6224,104926,8755,338,123622,23954,6334,2537,24261,23665760,83975,784,24437,5360315,311,6549,107689,17100,24976875,6654,71245,6442842,62334,54698175,6328154,2476
2,440950,7017,5281873,323,5281167,7175,7292,6335613,7456,7462

$$$$
15,433
  SciTegic10191915303D

 47 46  0  0  0  0            999 V2000
   -0.7110    5.8540    2.7810 O   0  5
    0.7050    5.9300    2.7030 N   0  3
    0.0760    1.4320    0.4100 C   0  0
    0.6210    2.1740    1.6310 C   0  0
    0.2230   -0.0860    0.5290 C   0  0
    0.4730    3.6920    1.5120 C   0  0
   -0.3220   -0.8300   -0.6910 C   0  0
    1.0230    4.4340    2.7310 C   0  0
   -0.1760   -2.3460   -0.5720 C   0  0
   -0.7210   -3.0900   -1.7930 C   0  0
   -0.5720   -4.6070   -1.6740 C   0  0
   -1.1170   -5.3500   -2.8950 C   0  0
    1.2460    6.6700    3.9260 C   0  0
    1.1050    6.5940    1.3850 C   0  0
   -0.9710   -6.8670   -2.7750 C   0  0
   -1.5160   -7.6090   -3.9960 C   0  0
   -0.9630    1.7030    0.2270 H   0  0
    0.5470    1.7930   -0.5040 H   0  0
    1.6580    1.9000    1.8160 H   0  0
    0.1480    1.8110    2.5450 H   0  0
    1.2620   -0.3590    0.7150 H   0  0
   -0.2480   -0.4490    1.4430 H   0  0
   -0.5660    3.9650    1.3320 H   0  0
    0.9390    4.0530    0.5960 H   0  0
   -1.3610   -0.5570   -0.8770 H   0  0
    0.1480   -0.4670   -1.6050 H   0  0
    2.0980    4.2720    2.8280 H   0  0
    0.6640    3.9810    3.6540 H   0  0
    0.8630   -2.6190   -0.3870 H   0  0
   -0.6470   -2.7090    0.3420 H   0  0
   -1.7580   -2.8160   -1.9790 H   0  0
   -0.2480   -2.7270   -2.7070 H   0  0
    0.4670   -4.8790   -1.4880 H   0  0
   -1.0430   -4.9690   -0.7600 H   0  0
   -2.1560   -5.0760   -3.0800 H   0  0
   -0.6470   -4.9860   -3.8090 H   0  0
    0.9120    6.2130    4.8570 H   0  0
    0.9120    7.7090    3.9260 H   0  0
    2.3360    6.6700    3.9260 H   0  0
    0.5720    6.1660    0.5350 H   0  0
    2.1740    6.4750    1.2030 H   0  0
    0.8910    7.6620    1.4100 H   0  0
    0.0680   -7.1410   -2.5900 H   0  0
   -1.4410   -7.2290   -1.8610 H   0  0
   -1.3850   -8.6860   -3.8810 H   0  0
   -2.5740   -7.3930   -4.1390 H   0  0
   -0.9880   -7.3050   -4.9000 H   0  0
  1  2  1  0
  2  8  1  0
  2 13  1  0
  2 14  1  0
  3  4  1  0
  3  5  1  0
  4  6  1  0
  5  7  1  0
  6  8  1  0
  7  9  1  0
  9 10  1  0
 10 11  1  0
 11 12  1  0
 12 15  1  0
 15 16  1  0
  3 17  1  0
  3 18  1  0
  4 19  1  0
  4 20  1  0
  5 21  1  0
  5 22  1  0
  6 23  1  0
  6 24  1  0
  7 25  1  0
  7 26  1  0
  8 27  1  0
  8 28  1  0
  9 29  1  0
  9 30  1  0
 10 31  1  0
 10 32  1  0
 11 33  1  0
 11 34  1  0
 12 35  1  0
 12 36  1  0
 13 37  1  0
 13 38  1  0
 13 39  1  0
 14 40  1  0
 14 41  1  0
 14 42  1  0
 15 43  1  0
 15 44  1  0
 16 45  1  0
 16 46  1  0
 16 47  1  0
M  CHG  2   1  -1   2   1
M  END
> <Name>
15,433

> <OBJECTID>
9223372436290076683

> <ActiveAidCount>
4

> <AtomChiralCount>
0

> <AtomChiralDefCount>
0

> <AtomChiralUndefCount>
0

> <BondChiralCount>
0

> <BondChiralDefCount>
0

> <BondChiralUndefCount>
0

> <CID>
15433

> <CanonicalSmiles>
CCCCCCCCCCCC[N+](C)(C)[O-]

> <Complexity>
146

> <CovalentUnitCount>
1

> <CreateDate>
2005/06/01 00:00

> <HeavyAtomCount>
16

> <HydrogenBondAcceptorCount>
1

> <HydrogenBondDonorCount>
0

> <IUPACName>
N,N-dimethyldodecan-1-amine oxide

> <InChI>
InChI=1S/C14H31NO/c1-4-5-6-7-8-9-10-11-12-13-14-15(2,3)16/h4-14H2,1-3H3

> <InChIKey>
SYELZBGXAIXKHU-UHFFFAOYSA-N

> <IsomericSmiles>
CCCCCCCCCCCC[N+](C)(C)[O-]

> <IsotopeAtomCount>
0

> <MeSHHeading>
dodecyldimethylamine oxide

> <MeSHTerm>
Ammonyx LO
N,N-dimethyldodecyclamine N-oxide
lauryldimethylamine oxide
LDAO
DDAO
N-dodecyl-N,N-dimethylamine N-oxide
dodecyldimethylamine oxide
hexyldimethylamine oxide
dodecyldimethylamine N-oxide
N,N-dimethyldodecylamine-N-oxide

> <MolecularFormula>
C14H31NO

> <MolecularWeight>
229.4

> <PharmAction>
Chemical Actions and Uses
Specialty Uses of Chemicals
Surface-Active Agents
Detergents

> <RotatableBondCount>
11

> <Smiles>
[O-][N+](C)(C)CCCCCCCCCCCC

> <SourceCategory>
Legacy Depositors
Chemical Vendors
Research and Development
Curation Efforts
Governmental Organizations
Subscription Services
Journal Publishers
NIH Initiatives

> <Synonym>
1643-20-5
Lauramine oxide
Lauryldimethylamine oxide
Lauryldimethylamine N-oxide
Dodecyldimethylamine oxide
LDAO
Ammonyx AO
Ammonyx LO
Empigen OB
Aromox DMCD
Conco XAL
Dimethyldodecylamine oxide
1-Dodecanamine, N,N-dimethyl-, N-oxide
Dimethylaurylamine oxide
DDNO
n-Dodecyldimethylamine oxide
Dimethyldodecylamine N-oxide
dodecyl(dimethyl)amine oxide
Dodecyldimethylamine N-oxide
N,N-dimethyldodecan-1-amine oxide
LAURYL DIMETHYLAMINE-N-OXIDE
Aromox dmmc-W
Dimethyllaurylamine oxide
Amonyx AO
Refan [Russian]
lauryl dimethylamine oxide
N,N-Dimethyldodecylamine N-oxide
N,N-Dimethyldodecylamine-N-oxide
N,N-Dimethyl-1-dodecylamine N-oxide
N,N-Dimethyldodecylamine oxide
UNII-4F6FC4MI8W
N-Lauryldimethylamine N-oxide
HSDB 5451
N-Lauryl-N,N-dimethylamine oxide
NCI-C55129
EINECS 216-700-6
MFCD00002049
N,N-Dimethyl-dodecylaminoxid [Czech]
Oxyde de dimethyllaurylamine [French]
Dodecylamine, N,N-dimethyl-, N-oxide
Lauryl dimethyl amine oxide
BRN 1769927
4F6FC4MI8W
1-Dodecanamine, N,N-dimethl-, N-oxide
amine oxide, dodecyl(dimethyl)-
CHEMBL1233973
N,N-Dimethyl-1-dodecanamine-N-oxide
N,N-Dimethyldodecylamine N-oxide, 30% solution in water
Refan
Oxyde de dimethyllaurylamine
N,N-Dimethyl-dodecylaminoxid
C14H31NO
Cyclomox L
Rhodamox L
Softamine L
Genaminox LA
Laurylamine oxide
Schercamox DML
Rhodamox LO
Oxamin LO
Emcol L
Incromine oxide L
Emcol LO
Unisafe A-LM
Amphitol 20N
Barlox 12i
Rewominox L 408
Ammonyx DMCD 40
Admox 12
Aromox DM 12D
Aromox DM 12W
Oxidet DM 20
Aromox DM 12D-W
Emal 20N
imethylauroylamine oxide
Dodecycldimethylamine ox
N,N-DIMETHYL-N-DODECYLAMINE OXIDE
Atlas CD 413
Tomah AO 728
Aromox DM 12DW(C)
dodecycldimethylamine oxide
Ammonyx C10 Amine Oxide
EC 216-700-6
AC1L25VX
Dimethyldodecylamine-N-oxide
SCHEMBL27337
4-04-00-00798 (Beilstein Handbook Reference)
KSC496S8J
N,N-dimethyldodecanamine oxide
DTXSID1020514
CTK3J6984
CHEBI:131762
SYELZBGXAIXKHU-UHFFFAOYSA-N
(C10-16)alkyldimethylamine oxide
101CG
ZINC2039372
BDBM50327308
N,N-dimethyldodecan-1-amine N-oxide
AKOS015904034
DB04147
LS-7353
RP27839
RTR-007066
KS-00000Y19
NCGC00164286-01
AN-20669
N,N-Dimethyldodecylamine-N-oxide solution
SC-68556
SC-80023
Lauryldimethylamine oxide / Lauramine oxide
TR-007066
FT-0689256
V0580
1-Dodecanamine, N,N-dimethyl-, N-oxide (9CI)
LDAO, N,N-dimethyldodecylamine N-oxide, powder
Dodecylamine, N,N-dimethyl-, N-oxide (6CI,8CI)
N,N-Dimethyldodecylamine N-oxide 100 mM solution
J-010130
J-521637
I14-18380
N,N-Dimethyldodecylamine N-oxide 30% Solution in H2O
N,N-Dimethyldodecylamine N-oxide, >=99% (titration)
N,N-Dimethyldodecylamine N-oxide solution, ~30% in H2O
N,N-Dimethyldodecylamine N-oxide, BioXtra, >=99.0% (NT)
UNII-LF6BKC321J component SYELZBGXAIXKHU-UHFFFAOYSA-N
UNII-QWA2IZI6FI component SYELZBGXAIXKHU-UHFFFAOYSA-N
N,N-Dimethyldodecylamine N-oxide solution, BioUltra, ~0.1 M in H2O

> <TPSA>
18.1

> <TotalAidCount>
41

> <TotalFormalCharge>
0

> <XLogP>
5.3

> <database>
PubChem Compound

> <matchingCount>
176

> <primaryID>
15433

> <queryTranslation>
7628[CompoundID] OR 244[CompoundID] OR 25059[CompoundID] OR 7618[CompoundID] OR 7641[CompoundID] OR 5053[CompoundID] OR 637511[CompoundID] OR 7714[CompoundID] OR 7762[CompoundID] OR 25429[CompoundID]
OR 8842[CompoundID] OR 7794[CompoundID] OR 637566[CompoundID] OR 7843[CompoundID] OR 174[CompoundID] OR 7870[CompoundID] OR 86102[CompoundID] OR 7888[CompoundID] OR 7896[CompoundID] OR 1140[CompoundID
] OR 8042[CompoundID] OR 8058[CompoundID] OR 8078[CompoundID] OR 8087[CompoundID] OR 8117[CompoundID] OR 8133[CompoundID] OR 115224[CompoundID] OR 8175[CompoundID] OR 8194[CompoundID] OR 445639[Compou
ndID] OR 4944[CompoundID] OR 8294[CompoundID] OR 93541[CompoundID] OR 8360[CompoundID] OR 8363[CompoundID] OR 656612[CompoundID] OR 125098[CompoundID] OR 3352[CompoundID] OR 3303913[CompoundID] OR 648
05[CompoundID] OR 31200[CompoundID] OR 1712058[CompoundID] OR 31236[CompoundID] OR 31239[CompoundID] OR 31265[CompoundID] OR 31266[CompoundID] OR 31276[CompoundID] OR 6950273[CompoundID] OR 518659[Com
poundID] OR 14896[CompoundID] OR 14798[CompoundID] OR 14829[CompoundID] OR 14830[CompoundID] OR 8635[CompoundID] OR 23266[CompoundID] OR 4284[CompoundID] OR 8693[CompoundID] OR 22311[CompoundID] OR 87
59[CompoundID] OR 8785[CompoundID] OR 2723810[CompoundID] OR 8857[CompoundID] OR 3893[CompoundID] OR 9936739[CompoundID] OR 516892[CompoundID] OR 5430[CompoundID] OR 9017[CompoundID] OR 15433[Compound
ID] OR 107720[CompoundID] OR 9552081[CompoundID] OR 164825[CompoundID] OR 10275455[CompoundID] OR 16666[CompoundID] OR 9839306[CompoundID] OR 5282227[CompoundID] OR 23676745[CompoundID] OR 32881[Compo
undID] OR 91581[CompoundID] OR 39800[CompoundID] OR 33344[CompoundID] OR 15962220[CompoundID] OR 33528[CompoundID] OR 5365075[CompoundID] OR 62829[CompoundID] OR 162381[CompoundID] OR 517202[CompoundI
D] OR 6433353[CompoundID] OR 2730[CompoundID] OR 5372405[CompoundID] OR 36081[CompoundID] OR 3120[CompoundID] OR 3017[CompoundID] OR 2969[CompoundID] OR 18827[CompoundID] OR 19518[CompoundID] OR 19658
[CompoundID] OR 38283[CompoundID] OR 2758[CompoundID] OR 10112[CompoundID] OR 10340[CompoundID] OR 712[CompoundID] OR 5794[CompoundID] OR 3347[CompoundID] OR 104150[CompoundID] OR 2912[CompoundID] OR
2450[CompoundID] OR 40326[CompoundID] OR 40585[CompoundID] OR 517055[CompoundID] OR 10913[CompoundID] OR 108242[CompoundID] OR 62097[CompoundID] OR 41679[CompoundID] OR 54680676[CompoundID] OR 62118[C
ompoundID] OR 753[CompoundID] OR 1030[CompoundID] OR 23673837[CompoundID] OR 54678504[CompoundID] OR 11442[CompoundID] OR 11463[CompoundID] OR 22230[CompoundID] OR 440917[CompoundID] OR 6054[CompoundI
D] OR 43234[CompoundID] OR 22629[CompoundID] OR 3039[CompoundID] OR 2735067[CompoundID] OR 6144[CompoundID] OR 702[CompoundID] OR 284[CompoundID] OR 176[CompoundID] OR 91688[CompoundID] OR 22947[Compo
undID] OR 47445[CompoundID] OR 1711973[CompoundID] OR 243[CompoundID] OR 10342051[CompoundID] OR 5281875[CompoundID] OR 3776[CompoundID] OR 6224[CompoundID] OR 104926[CompoundID] OR 8755[CompoundID] O
R 338[CompoundID] OR 123622[CompoundID] OR 23954[CompoundID] OR 6334[CompoundID] OR 2537[CompoundID] OR 24261[CompoundID] OR 23665760[CompoundID] OR 83975[CompoundID] OR 784[CompoundID] OR 24437[Compo
undID] OR 5360315[CompoundID] OR 311[CompoundID] OR 6549[CompoundID] OR 107689[CompoundID] OR 17100[CompoundID] OR 24976875[CompoundID] OR 6654[CompoundID] OR 71245[CompoundID] OR 6442842[CompoundID]
OR 62334[CompoundID] OR 54698175[CompoundID] OR 6328154[CompoundID] OR 24762[CompoundID] OR 440950[CompoundID] OR 7017[CompoundID] OR 5281873[CompoundID] OR 323[CompoundID] OR 5281167[CompoundID] OR 7
175[CompoundID] OR 7292[CompoundID] OR 6335613[CompoundID] OR 7456[CompoundID] OR 7462[CompoundID]

> <resultIndex>
95

> <resultRange>
1-176

> <textQuery>
7628,244,25059,7618,7641,5053,637511,7714,7762,25429,8842,7794,637566,7843,174,7870,86102,7888,7896,1140,8042,8058,8078,8087,8117,8133,115224,8175,8194,445639,4944,8294,93541,8360,8363,656612,125098,3
352,3303913,64805,31200,1712058,31236,31239,31265,31266,31276,6950273,518659,14896,14798,14829,14830,8635,23266,4284,8693,22311,8759,8785,2723810,8857,3893,9936739,516892,5430,9017,15433,107720,955208
1,164825,10275455,16666,9839306,5282227,23676745,32881,91581,39800,33344,15962220,33528,5365075,62829,162381,517202,6433353,2730,5372405,36081,3120,3017,2969,18827,19518,19658,38283,2758,10112,10340,7
12,5794,3347,104150,2912,2450,40326,40585,517055,10913,108242,62097,41679,54680676,62118,753,1030,23673837,54678504,11442,11463,22230,440917,6054,43234,22629,3039,2735067,6144,702,284,176,91688,22947,
47445,1711973,243,10342051,5281875,3776,6224,104926,8755,338,123622,23954,6334,2537,24261,23665760,83975,784,24437,5360315,311,6549,107689,17100,24976875,6654,71245,6442842,62334,54698175,6328154,2476
2,440950,7017,5281873,323,5281167,7175,7292,6335613,7456,7462

$$$$
14,896
  SciTegic10191915303D

 26 27  0  0  1  0            999 V2000
    0.7890    2.7030   -0.4940 C   0  0
    0.6580    1.4650    0.0140 C   0  0
    1.8750    0.6740    0.4430 C   0  0
    1.5040   -0.7660    0.8770 C   0  0
   -0.0100   -1.0510    0.8960 C   0  0  3  0  0  0
   -0.8160    0.0940    1.5590 C   0  0
   -0.7090    0.7930    0.1820 C   0  0  3  0  0  0
   -0.7580   -0.6460   -0.4100 C   0  0
    0.0290   -0.8520   -1.7030 C   0  0
   -2.1640   -1.2320   -0.5470 C   0  0
    1.7110    3.2480   -0.6490 H   0  0
   -0.1330    3.1910   -0.7740 H   0  0
    2.5980    0.6410   -0.3730 H   0  0
    2.3610    1.1930    1.2690 H   0  0
    1.9880   -1.4800    0.2110 H   0  0
    1.9160   -0.9610    1.8670 H   0  0
   -0.2500   -2.0470    1.2690 H   0  0
   -0.3460    0.5960    2.4040 H   0  0
   -1.8260   -0.1600    1.8910 H   0  0
   -1.5590    1.4280   -0.0720 H   0  0
    0.1910   -1.9080   -1.9180 H   0  0
    1.0060   -0.3730   -1.6410 H   0  0
   -0.5000   -0.4180   -2.5510 H   0  0
   -2.1190   -2.2700   -0.8790 H   0  0
   -2.6930   -1.1880    0.4060 H   0  0
   -2.7460   -0.6740   -1.2770 H   0  0
  1  2  2  0
  2  3  1  0
  2  7  1  0
  3  4  1  0
  4  5  1  0
  5  6  1  0
  5  8  1  0
  6  7  1  0
  7  8  1  0
  8  9  1  0
  8 10  1  0
  1 11  1  0
  1 12  1  0
  3 13  1  0
  3 14  1  0
  4 15  1  0
  4 16  1  0
  5 17  1  0
  6 18  1  0
  6 19  1  0
  7 20  1  0
  9 21  1  0
  9 22  1  0
  9 23  1  0
 10 24  1  0
 10 25  1  0
 10 26  1  0
M  END
> <Name>
14,896

> <OBJECTID>
9223372440585043979

> <ActiveAidCount>
0

> <AtomChiralCount>
2

> <AtomChiralDefCount>
0

> <AtomChiralUndefCount>
2

> <BondChiralCount>
0

> <BondChiralDefCount>
0

> <BondChiralUndefCount>
0

> <CID>
14896

> <CanonicalSmiles>
CC1(C2CCC(=C)C1C2)C

> <Complexity>
177

> <CovalentUnitCount>
1

> <CreateDate>
2004/09/16 00:00

> <HeavyAtomCount>
10

> <HydrogenBondAcceptorCount>
0

> <HydrogenBondDonorCount>
0

> <IUPACName>
6,6-dimethyl-2-methylidenebicyclo[3.1.1]heptane

> <InChI>
InChI=1S/C10H16/c1-7-4-5-8-6-9(7)10(8,2)3/h8-9H,1,4-6H2,2-3H3

> <InChIKey>
WTARULDDTDQWMU-UHFFFAOYSA-N

> <IsomericSmiles>
CC1(C2CCC(=C)C1C2)C

> <IsotopeAtomCount>
0

> <MeSHHeading>
beta-pinene

> <MeSHTerm>
terebenthene
terbenthene
beta-pinene

> <MolecularFormula>
C10H16

> <MolecularWeight>
136.23

> <RotatableBondCount>
0

> <Smiles>
C=C1C(C(C)(C)C2CC1)C2

> <SourceCategory>
Legacy Depositors
Chemical Vendors
Research and Development
Curation Efforts
Governmental Organizations
NIH Initiatives
Subscription Services
Journal Publishers

> <Synonym>
BETA-PINENE
127-91-3
Pseudopinene
Nopinene
6,6-Dimethyl-2-methylenebicyclo[3.1.1]heptane
Terebenthene
Terbenthene
2(10)-Pinene
.beta.-Pinene
Pseudopinen
PINENE, BETA
Bicyclo[3.1.1]heptane, 6,6-dimethyl-2-methylene-
Pin-2(10)-ene
Nopinen
6,6-dimethyl-2-methylidenebicyclo[3.1.1]heptane
(-)-.beta.-Pinene
6,6-Dimethyl-2-methylenenorpinane
Rosemarel
ss-Pinene
CHEBI:50025
WTARULDDTDQWMU-UHFFFAOYSA-N
6,6-Dimethyl-2-methylene-bicyclo(3.1.1)heptane
NSC21447
NSC59190
beta-Pinene (natural)
2(10)-Pinene, (1S,5S)-(-)-
2,2,6-Trimethylbicyclo(3.1.1)hept-2-ene
6,6-Dimethyl-2-methylenebicyclo(3.1.1)heptane
6,6-dimethyl-4-methylidenebicyclo[3.1.1]heptane
Bicyclo(3.1.1)heptane, 6,6-dimethyl-2-methylene-
FEMA No. 2903
B-pinene
HSDB 5615
6,6-dimethyl-2-methylene-norpinane
EINECS 204-872-5
EINECS 245-424-9
NSC 21447
beta-Pinene resin
Bicyclo[3.1.1]heptane, 6,6-dimethyl-2-methylene-, (1S)-
Piccolyte 115
2,6-Trimethylbicyclo[3.1.1]hept-2-ene
AI3-24483
2,2,6-Trimethylbicyclo[3.1.1]hept-2-ene
beta-Pinene homopolymer
(1S)-(-)-b-Pinene
Bicyclo[3.1.1]heptane,6-dimethyl-2-methylene-
(-)-2(10)-Pinene
beta pinene
(1S,5S)-2-(10)-Pinene
L-.beta.-Pinene
beta-Pinene (pure)
laevo-.beta.-Pinene
Beta Pinene 95 PF
Beta Pinene T 85%
Beta Pinene T 95%
Beta Pinene PF 85%
Beta Pinene PF 95%
AC1Q2AIT
(+)-I(2)-Pinene
(1)-6,6-Dimethyl-2-methylenebicyclo(3.1.1)heptane
DSSTox_CID_7049
AC1L24RF
D-alpha-PINENE, 95%
DSSTox_RID_78293
DSSTox_GSID_27049
25719-60-2
Bicyclo(3.1.1)heptane, 6,6-dimethyl-2-methylene-, (1S,5S)-
Bicyclo[3.1.1]heptane, 6,6-dimethyl-2-methylene-, (1S,5S)-
CHEMBL501351
(1S)-(-)-.beta.-Pinene
.beta.-Pinene-(1S)-(-)
Jsp001748
DTXSID7027049
Tox21_200029
MFCD00063635
NSC-21447
NSC-59190
NSC406265
SBB061306
AKOS004119987
AKOS016843693
( inverted exclamation markA)-b-pinene
EBD2156726
LS-3052
NSC-406265
NCGC00248498-01
NCGC00257583-01
AN-18767
AN-23009
CAS-127-91-3
I943
SC-48739
AB1006761
beta-Pinene 1000 microg/mL in Isopropanol
4CH-024531
FT-0622936
P0441
ST50330587
6,6-Dimethyl-2-methylenbicyclo(3.1.1)heptane
C09882
064A767
6,6-Dimethyl-2-methylenebicyclo[3.1.1]heptane, 9CI
I14-45220
(1S,5S)-6,6-Dimethyl-2-methylenebicyclo[3.1.1] heptane
6,6-Dimethyl-2-methylenebicyclo[3.1.1]heptane-, (S)-
BICYCLO(3.1.1)HEPTANE, 6,6-DIMETHYL-2-METHYLENE-, HOMOPOLYMER
2(10)-Pinene; 6,6-Dimethyl-2-methylenebicyclo[3.1.1]heptane; Pin-2(10)-ene

> <TPSA>
0

> <TotalAidCount>
267

> <TotalFormalCharge>
0

> <XLogP>
3.1

> <database>
PubChem Compound

> <matchingCount>
176

> <primaryID>
14896

> <queryTranslation>
7628[CompoundID] OR 244[CompoundID] OR 25059[CompoundID] OR 7618[CompoundID] OR 7641[CompoundID] OR 5053[CompoundID] OR 637511[CompoundID] OR 7714[CompoundID] OR 7762[CompoundID] OR 25429[CompoundID]
OR 8842[CompoundID] OR 7794[CompoundID] OR 637566[CompoundID] OR 7843[CompoundID] OR 174[CompoundID] OR 7870[CompoundID] OR 86102[CompoundID] OR 7888[CompoundID] OR 7896[CompoundID] OR 1140[CompoundID
] OR 8042[CompoundID] OR 8058[CompoundID] OR 8078[CompoundID] OR 8087[CompoundID] OR 8117[CompoundID] OR 8133[CompoundID] OR 115224[CompoundID] OR 8175[CompoundID] OR 8194[CompoundID] OR 445639[Compou
ndID] OR 4944[CompoundID] OR 8294[CompoundID] OR 93541[CompoundID] OR 8360[CompoundID] OR 8363[CompoundID] OR 656612[CompoundID] OR 125098[CompoundID] OR 3352[CompoundID] OR 3303913[CompoundID] OR 648
05[CompoundID] OR 31200[CompoundID] OR 1712058[CompoundID] OR 31236[CompoundID] OR 31239[CompoundID] OR 31265[CompoundID] OR 31266[CompoundID] OR 31276[CompoundID] OR 6950273[CompoundID] OR 518659[Com
poundID] OR 14896[CompoundID] OR 14798[CompoundID] OR 14829[CompoundID] OR 14830[CompoundID] OR 8635[CompoundID] OR 23266[CompoundID] OR 4284[CompoundID] OR 8693[CompoundID] OR 22311[CompoundID] OR 87
59[CompoundID] OR 8785[CompoundID] OR 2723810[CompoundID] OR 8857[CompoundID] OR 3893[CompoundID] OR 9936739[CompoundID] OR 516892[CompoundID] OR 5430[CompoundID] OR 9017[CompoundID] OR 15433[Compound
ID] OR 107720[CompoundID] OR 9552081[CompoundID] OR 164825[CompoundID] OR 10275455[CompoundID] OR 16666[CompoundID] OR 9839306[CompoundID] OR 5282227[CompoundID] OR 23676745[CompoundID] OR 32881[Compo
undID] OR 91581[CompoundID] OR 39800[CompoundID] OR 33344[CompoundID] OR 15962220[CompoundID] OR 33528[CompoundID] OR 5365075[CompoundID] OR 62829[CompoundID] OR 162381[CompoundID] OR 517202[CompoundI
D] OR 6433353[CompoundID] OR 2730[CompoundID] OR 5372405[CompoundID] OR 36081[CompoundID] OR 3120[CompoundID] OR 3017[CompoundID] OR 2969[CompoundID] OR 18827[CompoundID] OR 19518[CompoundID] OR 19658
[CompoundID] OR 38283[CompoundID] OR 2758[CompoundID] OR 10112[CompoundID] OR 10340[CompoundID] OR 712[CompoundID] OR 5794[CompoundID] OR 3347[CompoundID] OR 104150[CompoundID] OR 2912[CompoundID] OR
2450[CompoundID] OR 40326[CompoundID] OR 40585[CompoundID] OR 517055[CompoundID] OR 10913[CompoundID] OR 108242[CompoundID] OR 62097[CompoundID] OR 41679[CompoundID] OR 54680676[CompoundID] OR 62118[C
ompoundID] OR 753[CompoundID] OR 1030[CompoundID] OR 23673837[CompoundID] OR 54678504[CompoundID] OR 11442[CompoundID] OR 11463[CompoundID] OR 22230[CompoundID] OR 440917[CompoundID] OR 6054[CompoundI
D] OR 43234[CompoundID] OR 22629[CompoundID] OR 3039[CompoundID] OR 2735067[CompoundID] OR 6144[CompoundID] OR 702[CompoundID] OR 284[CompoundID] OR 176[CompoundID] OR 91688[CompoundID] OR 22947[Compo
undID] OR 47445[CompoundID] OR 1711973[CompoundID] OR 243[CompoundID] OR 10342051[CompoundID] OR 5281875[CompoundID] OR 3776[CompoundID] OR 6224[CompoundID] OR 104926[CompoundID] OR 8755[CompoundID] O
R 338[CompoundID] OR 123622[CompoundID] OR 23954[CompoundID] OR 6334[CompoundID] OR 2537[CompoundID] OR 24261[CompoundID] OR 23665760[CompoundID] OR 83975[CompoundID] OR 784[CompoundID] OR 24437[Compo
undID] OR 5360315[CompoundID] OR 311[CompoundID] OR 6549[CompoundID] OR 107689[CompoundID] OR 17100[CompoundID] OR 24976875[CompoundID] OR 6654[CompoundID] OR 71245[CompoundID] OR 6442842[CompoundID]
OR 62334[CompoundID] OR 54698175[CompoundID] OR 6328154[CompoundID] OR 24762[CompoundID] OR 440950[CompoundID] OR 7017[CompoundID] OR 5281873[CompoundID] OR 323[CompoundID] OR 5281167[CompoundID] OR 7
175[CompoundID] OR 7292[CompoundID] OR 6335613[CompoundID] OR 7456[CompoundID] OR 7462[CompoundID]

> <resultIndex>
96

> <resultRange>
1-176

> <textQuery>
7628,244,25059,7618,7641,5053,637511,7714,7762,25429,8842,7794,637566,7843,174,7870,86102,7888,7896,1140,8042,8058,8078,8087,8117,8133,115224,8175,8194,445639,4944,8294,93541,8360,8363,656612,125098,3
352,3303913,64805,31200,1712058,31236,31239,31265,31266,31276,6950273,518659,14896,14798,14829,14830,8635,23266,4284,8693,22311,8759,8785,2723810,8857,3893,9936739,516892,5430,9017,15433,107720,955208
1,164825,10275455,16666,9839306,5282227,23676745,32881,91581,39800,33344,15962220,33528,5365075,62829,162381,517202,6433353,2730,5372405,36081,3120,3017,2969,18827,19518,19658,38283,2758,10112,10340,7
12,5794,3347,104150,2912,2450,40326,40585,517055,10913,108242,62097,41679,54680676,62118,753,1030,23673837,54678504,11442,11463,22230,440917,6054,43234,22629,3039,2735067,6144,702,284,176,91688,22947,
47445,1711973,243,10342051,5281875,3776,6224,104926,8755,338,123622,23954,6334,2537,24261,23665760,83975,784,24437,5360315,311,6549,107689,17100,24976875,6654,71245,6442842,62334,54698175,6328154,2476
2,440950,7017,5281873,323,5281167,7175,7292,6335613,7456,7462

$$$$
14,830
  SciTegic10191915303D

  1  0  0  0  0  0            999 V2000
    0.0000    0.0000    0.0000 Cu  0  2
M  CHG  1   1   2
M  END
> <Name>
14,830

> <OBJECTID>
9223372444880011275

> <ActiveAidCount>
0

> <AtomChiralCount>
0

> <AtomChiralDefCount>
0

> <AtomChiralUndefCount>
0

> <BondChiralCount>
0

> <BondChiralDefCount>
0

> <BondChiralUndefCount>
0

> <CID>
14830

> <CanonicalSmiles>
O.[Cu].[Cu]

> <Complexity>
2.8

> <CovalentUnitCount>
3

> <CreateDate>
2005/03/26 00:00

> <HeavyAtomCount>
3

> <HydrogenBondAcceptorCount>
1

> <HydrogenBondDonorCount>
1

> <IUPACName>
copper;hydrate

> <InChI>
InChI=1S/2Cu.H2O/h;;1H2

> <InChIKey>
LBJNMUFDOHXDFG-UHFFFAOYSA-N

> <IsomericSmiles>
O.[Cu].[Cu]

> <IsotopeAtomCount>
0

> <MeSHHeading>
cuprous oxide

> <MeSHTerm>
Copper(I) oxide
cuprous oxide
Perenox
copper oxide (Cu2O)

> <MolecularFormula>
Cu2H2O

> <MolecularWeight>
145.11

> <RotatableBondCount>
0

> <Smiles>
[Cu].[Cu].O

> <SourceCategory>
Legacy Depositors
Chemical Vendors
Governmental Organizations
Journal Publishers
Subscription Services
Research and Development
Curation Efforts

> <Synonym>
CUPROUS OXIDE
Copper(I) oxide
Dicopper oxide
Copper oxide (Cu2O)
Perenox
Red copper oxide
Cupramar
Cuprocide
Fungimar
Kuprite
Oleocuivre
Perecot
Nordox
Copox
Copper suboxide
Copper sardez
Copper Sandoz
Yellow Cuprocide
Dicopper monoxide
Brown copper oxide
Cu-O-Cu Linkage
Copper(1+) oxide
Caocobre
Perenex
Copper nordox
Copper-sandoz
Oxyde cuivreux
Yellow compound
Oleo nordox
Copper hemioxide
Copper protoxide
Cobre [Sandoz]
Copper oxide, red
Purple Copp 92
Purple Copp 97
Purple Copp 97N
Fungi-rhap Cu-75
Red Copp 92
Red Copp 97
Red Copp 97N
Caswell No. 266
Kupferoxydul [German]
Cuprous oxide [ISO]
Cupper oxide [Russian]
Cuprous Oxide Type Two
Oxyde cuivreux [French]
Cuprous Oxide, AA Grade
Copper oxide (8CI,9CI)
Oxyde cuivreux [ISO-French]
CCRIS 2289
CP Cuprous Oxide Pigment Grade
C.I. 77402
HSDB 1549
EINECS 215-270-7
NSC 83538
CI 77402
MFCD00010974
C2O
Kupferoxydul
Cupper oxide
Copper(1) oxide
Copper(I) oxide, p.a.
Copper(I) oxide, 97%
Copper(I) oxide <7micron
NCIOpen2_001242
WLN: CU2 O
DTXSID0034489
NSC83538
NSC-83538
AKOS015903626
LS-54911
Copper(I) oxide, >=86% Cu basis, red
Copper(I) oxide, powder, <=7 mum, 97%
EC 215-270-7
J-520124
I14-18096
Copper(I) oxide, >=99.99% trace metals basis, anhydrous
Copper(I) oxide, nanospheres, dispersion, <350 nm particle size, 1.5 % (w/v) in ethanol

> <TPSA>
1

> <TotalAidCount>
3

> <TotalFormalCharge>
0

> <database>
PubChem Compound

> <matchingCount>
176

> <primaryID>
14830

> <queryTranslation>
7628[CompoundID] OR 244[CompoundID] OR 25059[CompoundID] OR 7618[CompoundID] OR 7641[CompoundID] OR 5053[CompoundID] OR 637511[CompoundID] OR 7714[CompoundID] OR 7762[CompoundID] OR 25429[CompoundID]
OR 8842[CompoundID] OR 7794[CompoundID] OR 637566[CompoundID] OR 7843[CompoundID] OR 174[CompoundID] OR 7870[CompoundID] OR 86102[CompoundID] OR 7888[CompoundID] OR 7896[CompoundID] OR 1140[CompoundID
] OR 8042[CompoundID] OR 8058[CompoundID] OR 8078[CompoundID] OR 8087[CompoundID] OR 8117[CompoundID] OR 8133[CompoundID] OR 115224[CompoundID] OR 8175[CompoundID] OR 8194[CompoundID] OR 445639[Compou
ndID] OR 4944[CompoundID] OR 8294[CompoundID] OR 93541[CompoundID] OR 8360[CompoundID] OR 8363[CompoundID] OR 656612[CompoundID] OR 125098[CompoundID] OR 3352[CompoundID] OR 3303913[CompoundID] OR 648
05[CompoundID] OR 31200[CompoundID] OR 1712058[CompoundID] OR 31236[CompoundID] OR 31239[CompoundID] OR 31265[CompoundID] OR 31266[CompoundID] OR 31276[CompoundID] OR 6950273[CompoundID] OR 518659[Com
poundID] OR 14896[CompoundID] OR 14798[CompoundID] OR 14829[CompoundID] OR 14830[CompoundID] OR 8635[CompoundID] OR 23266[CompoundID] OR 4284[CompoundID] OR 8693[CompoundID] OR 22311[CompoundID] OR 87
59[CompoundID] OR 8785[CompoundID] OR 2723810[CompoundID] OR 8857[CompoundID] OR 3893[CompoundID] OR 9936739[CompoundID] OR 516892[CompoundID] OR 5430[CompoundID] OR 9017[CompoundID] OR 15433[Compound
ID] OR 107720[CompoundID] OR 9552081[CompoundID] OR 164825[CompoundID] OR 10275455[CompoundID] OR 16666[CompoundID] OR 9839306[CompoundID] OR 5282227[CompoundID] OR 23676745[CompoundID] OR 32881[Compo
undID] OR 91581[CompoundID] OR 39800[CompoundID] OR 33344[CompoundID] OR 15962220[CompoundID] OR 33528[CompoundID] OR 5365075[CompoundID] OR 62829[CompoundID] OR 162381[CompoundID] OR 517202[CompoundI
D] OR 6433353[CompoundID] OR 2730[CompoundID] OR 5372405[CompoundID] OR 36081[CompoundID] OR 3120[CompoundID] OR 3017[CompoundID] OR 2969[CompoundID] OR 18827[CompoundID] OR 19518[CompoundID] OR 19658
[CompoundID] OR 38283[CompoundID] OR 2758[CompoundID] OR 10112[CompoundID] OR 10340[CompoundID] OR 712[CompoundID] OR 5794[CompoundID] OR 3347[CompoundID] OR 104150[CompoundID] OR 2912[CompoundID] OR
2450[CompoundID] OR 40326[CompoundID] OR 40585[CompoundID] OR 517055[CompoundID] OR 10913[CompoundID] OR 108242[CompoundID] OR 62097[CompoundID] OR 41679[CompoundID] OR 54680676[CompoundID] OR 62118[C
ompoundID] OR 753[CompoundID] OR 1030[CompoundID] OR 23673837[CompoundID] OR 54678504[CompoundID] OR 11442[CompoundID] OR 11463[CompoundID] OR 22230[CompoundID] OR 440917[CompoundID] OR 6054[CompoundI
D] OR 43234[CompoundID] OR 22629[CompoundID] OR 3039[CompoundID] OR 2735067[CompoundID] OR 6144[CompoundID] OR 702[CompoundID] OR 284[CompoundID] OR 176[CompoundID] OR 91688[CompoundID] OR 22947[Compo
undID] OR 47445[CompoundID] OR 1711973[CompoundID] OR 243[CompoundID] OR 10342051[CompoundID] OR 5281875[CompoundID] OR 3776[CompoundID] OR 6224[CompoundID] OR 104926[CompoundID] OR 8755[CompoundID] O
R 338[CompoundID] OR 123622[CompoundID] OR 23954[CompoundID] OR 6334[CompoundID] OR 2537[CompoundID] OR 24261[CompoundID] OR 23665760[CompoundID] OR 83975[CompoundID] OR 784[CompoundID] OR 24437[Compo
undID] OR 5360315[CompoundID] OR 311[CompoundID] OR 6549[CompoundID] OR 107689[CompoundID] OR 17100[CompoundID] OR 24976875[CompoundID] OR 6654[CompoundID] OR 71245[CompoundID] OR 6442842[CompoundID]
OR 62334[CompoundID] OR 54698175[CompoundID] OR 6328154[CompoundID] OR 24762[CompoundID] OR 440950[CompoundID] OR 7017[CompoundID] OR 5281873[CompoundID] OR 323[CompoundID] OR 5281167[CompoundID] OR 7
175[CompoundID] OR 7292[CompoundID] OR 6335613[CompoundID] OR 7456[CompoundID] OR 7462[CompoundID]

> <resultIndex>
97

> <resultRange>
1-176

> <textQuery>
7628,244,25059,7618,7641,5053,637511,7714,7762,25429,8842,7794,637566,7843,174,7870,86102,7888,7896,1140,8042,8058,8078,8087,8117,8133,115224,8175,8194,445639,4944,8294,93541,8360,8363,656612,125098,3
352,3303913,64805,31200,1712058,31236,31239,31265,31266,31276,6950273,518659,14896,14798,14829,14830,8635,23266,4284,8693,22311,8759,8785,2723810,8857,3893,9936739,516892,5430,9017,15433,107720,955208
1,164825,10275455,16666,9839306,5282227,23676745,32881,91581,39800,33344,15962220,33528,5365075,62829,162381,517202,6433353,2730,5372405,36081,3120,3017,2969,18827,19518,19658,38283,2758,10112,10340,7
12,5794,3347,104150,2912,2450,40326,40585,517055,10913,108242,62097,41679,54680676,62118,753,1030,23673837,54678504,11442,11463,22230,440917,6054,43234,22629,3039,2735067,6144,702,284,176,91688,22947,
47445,1711973,243,10342051,5281875,3776,6224,104926,8755,338,123622,23954,6334,2537,24261,23665760,83975,784,24437,5360315,311,6549,107689,17100,24976875,6654,71245,6442842,62334,54698175,6328154,2476
2,440950,7017,5281873,323,5281167,7175,7292,6335613,7456,7462

$$$$
14,829
  SciTegic10191915303D

  2  1  0  0  0  0            999 V2000
    0.8300    0.0000    0.0000 Cu  0  0
   -0.8300    0.0000    0.0000 O   0  0
  1  2  2  0
M  END
> <Name>
14,829

> <OBJECTID>
9223372449174978571

> <ActiveAidCount>
0

> <AtomChiralCount>
0

> <AtomChiralDefCount>
0

> <AtomChiralUndefCount>
0

> <BondChiralCount>
0

> <BondChiralDefCount>
0

> <BondChiralUndefCount>
0

> <CID>
14829

> <CanonicalSmiles>
O=[Cu]

> <Complexity>
2

> <CovalentUnitCount>
1

> <CreateDate>
2005/03/26 00:00

> <HeavyAtomCount>
2

> <HydrogenBondAcceptorCount>
1

> <HydrogenBondDonorCount>
0

> <IUPACName>
oxocopper

> <InChI>
InChI=1S/Cu.O

> <InChIKey>
QPLDLSVMHZLSFG-UHFFFAOYSA-N

> <IsomericSmiles>
O=[Cu]

> <IsotopeAtomCount>
0

> <MeSHHeading>
cupric oxide

> <MeSHTerm>
copper(II) oxide
copper oxide (CuO)
cupric oxide
copper dioxide (CuO2)

> <MolecularFormula>
CuO

> <MolecularWeight>
79.55

> <PharmAction>
Chemical Actions and Uses
Physiological Effects of Drugs
Trace Elements
Micronutrients
Pharmacologic Actions
Nutrients
Growth Substances

> <RotatableBondCount>
0

> <Smiles>
[Cu]=O

> <SourceCategory>
Legacy Depositors
Chemical Vendors
Research and Development
Curation Efforts
Governmental Organizations
Subscription Services
Journal Publishers

> <Synonym>
Copper(II) oxide
Copper oxide
Copper monoxide
Copper oxide (CuO)
oxocopper
Banacobru ol
Chrome Brown
Copper Brown
Copper monooxide
Black copper oxide
Copper(2+) oxide
Paramelaconite
Copacaps
Copporal
Natural tenorite
Wolmanac concentrate
C.I. Pigment Black 15
Copper (II) oxide
Boliden Salt K-33
Caswell No. 265
CI Pigment black 15
Cu-O Linkage
Boliden-CCA Wood Preservative
CCA Type C Wood Preservative
HSDB 266
Osmose K-33 Wood Preservative
Osmose P-50 Wood Preservative
Osmose K-33-A Wood Preservative
Osmose K-33-C Wood Preservative
C.I. 77403
EINECS 215-269-1
NSC 83537
EPA Pesticide Chemical Code 042401
CI 77403
Farboil Super Tropical Anti-Fouling 1260
MFCD00010979
CuO
Copper(II) oxide, 97%
Copper(II) oxide, 99+%
Copper(II) oxide, ACS reagent, powder
copper(II)oxide
C1O
Copper oxide, CuO
copper-(II) oxide
Copper(II) oxide, CP
CUPRIC OXIDE, ACS
EC 215-269-1
AC1L24MU
QPLDLSVMHZLSFG-UHFFFAOYSA-N
Copper Oxide Powder, 99+% Nano
Copper(II) oxide, Puratronic(R)
NSC83537
Copper(II) oxide, LR, >=97%
NSC-83537
AKOS015950660
AN-49050
LS-54910
AB1002918
Copper(II) oxide, ACS reagent, >=99.0%
Copper(II) oxide, powder, <10 mum, 98%
FT-0624050
Y1305
Copper(II) oxide (99.995%-Cu) PURATREM
Copper(II) oxide, >=99.0% (RT), granular
Copper(II) oxide, 99.999% trace metals basis
Copper(II) oxide, p.a., ACS reagent, 99.0%
J-520121
Copper(II) oxide, powder, 99.99% trace metals basis
Copper(II) oxide, powder, 99.995% trace metals basis
Copper(II) oxide, nanopowder, <50 nm particle size (TEM)
Copper(II) oxide, puriss. p.a., >=99.0% (RT), powder
Copper(II) oxide, nanotubes, diam. x L 10-12 nm x 75-100 nm
Copper(II) oxide, needles, mixture of CuO and Cu2O, ACS reagent
Copper(II) oxide on alumina, 14-20 mesh, extent of labeling: 13 wt. % loading

> <TPSA>
17.1

> <TotalAidCount>
0

> <TotalFormalCharge>
0

> <database>
PubChem Compound

> <matchingCount>
176

> <primaryID>
14829

> <queryTranslation>
7628[CompoundID] OR 244[CompoundID] OR 25059[CompoundID] OR 7618[CompoundID] OR 7641[CompoundID] OR 5053[CompoundID] OR 637511[CompoundID] OR 7714[CompoundID] OR 7762[CompoundID] OR 25429[CompoundID]
OR 8842[CompoundID] OR 7794[CompoundID] OR 637566[CompoundID] OR 7843[CompoundID] OR 174[CompoundID] OR 7870[CompoundID] OR 86102[CompoundID] OR 7888[CompoundID] OR 7896[CompoundID] OR 1140[CompoundID
] OR 8042[CompoundID] OR 8058[CompoundID] OR 8078[CompoundID] OR 8087[CompoundID] OR 8117[CompoundID] OR 8133[CompoundID] OR 115224[CompoundID] OR 8175[CompoundID] OR 8194[CompoundID] OR 445639[Compou
ndID] OR 4944[CompoundID] OR 8294[CompoundID] OR 93541[CompoundID] OR 8360[CompoundID] OR 8363[CompoundID] OR 656612[CompoundID] OR 125098[CompoundID] OR 3352[CompoundID] OR 3303913[CompoundID] OR 648
05[CompoundID] OR 31200[CompoundID] OR 1712058[CompoundID] OR 31236[CompoundID] OR 31239[CompoundID] OR 31265[CompoundID] OR 31266[CompoundID] OR 31276[CompoundID] OR 6950273[CompoundID] OR 518659[Com
poundID] OR 14896[CompoundID] OR 14798[CompoundID] OR 14829[CompoundID] OR 14830[CompoundID] OR 8635[CompoundID] OR 23266[CompoundID] OR 4284[CompoundID] OR 8693[CompoundID] OR 22311[CompoundID] OR 87
59[CompoundID] OR 8785[CompoundID] OR 2723810[CompoundID] OR 8857[CompoundID] OR 3893[CompoundID] OR 9936739[CompoundID] OR 516892[CompoundID] OR 5430[CompoundID] OR 9017[CompoundID] OR 15433[Compound
ID] OR 107720[CompoundID] OR 9552081[CompoundID] OR 164825[CompoundID] OR 10275455[CompoundID] OR 16666[CompoundID] OR 9839306[CompoundID] OR 5282227[CompoundID] OR 23676745[CompoundID] OR 32881[Compo
undID] OR 91581[CompoundID] OR 39800[CompoundID] OR 33344[CompoundID] OR 15962220[CompoundID] OR 33528[CompoundID] OR 5365075[CompoundID] OR 62829[CompoundID] OR 162381[CompoundID] OR 517202[CompoundI
D] OR 6433353[CompoundID] OR 2730[CompoundID] OR 5372405[CompoundID] OR 36081[CompoundID] OR 3120[CompoundID] OR 3017[CompoundID] OR 2969[CompoundID] OR 18827[CompoundID] OR 19518[CompoundID] OR 19658
[CompoundID] OR 38283[CompoundID] OR 2758[CompoundID] OR 10112[CompoundID] OR 10340[CompoundID] OR 712[CompoundID] OR 5794[CompoundID] OR 3347[CompoundID] OR 104150[CompoundID] OR 2912[CompoundID] OR
2450[CompoundID] OR 40326[CompoundID] OR 40585[CompoundID] OR 517055[CompoundID] OR 10913[CompoundID] OR 108242[CompoundID] OR 62097[CompoundID] OR 41679[CompoundID] OR 54680676[CompoundID] OR 62118[C
ompoundID] OR 753[CompoundID] OR 1030[CompoundID] OR 23673837[CompoundID] OR 54678504[CompoundID] OR 11442[CompoundID] OR 11463[CompoundID] OR 22230[CompoundID] OR 440917[CompoundID] OR 6054[CompoundI
D] OR 43234[CompoundID] OR 22629[CompoundID] OR 3039[CompoundID] OR 2735067[CompoundID] OR 6144[CompoundID] OR 702[CompoundID] OR 284[CompoundID] OR 176[CompoundID] OR 91688[CompoundID] OR 22947[Compo
undID] OR 47445[CompoundID] OR 1711973[CompoundID] OR 243[CompoundID] OR 10342051[CompoundID] OR 5281875[CompoundID] OR 3776[CompoundID] OR 6224[CompoundID] OR 104926[CompoundID] OR 8755[CompoundID] O
R 338[CompoundID] OR 123622[CompoundID] OR 23954[CompoundID] OR 6334[CompoundID] OR 2537[CompoundID] OR 24261[CompoundID] OR 23665760[CompoundID] OR 83975[CompoundID] OR 784[CompoundID] OR 24437[Compo
undID] OR 5360315[CompoundID] OR 311[CompoundID] OR 6549[CompoundID] OR 107689[CompoundID] OR 17100[CompoundID] OR 24976875[CompoundID] OR 6654[CompoundID] OR 71245[CompoundID] OR 6442842[CompoundID]
OR 62334[CompoundID] OR 54698175[CompoundID] OR 6328154[CompoundID] OR 24762[CompoundID] OR 440950[CompoundID] OR 7017[CompoundID] OR 5281873[CompoundID] OR 323[CompoundID] OR 5281167[CompoundID] OR 7
175[CompoundID] OR 7292[CompoundID] OR 6335613[CompoundID] OR 7456[CompoundID] OR 7462[CompoundID]

> <resultIndex>
98

> <resultRange>
1-176

> <textQuery>
7628,244,25059,7618,7641,5053,637511,7714,7762,25429,8842,7794,637566,7843,174,7870,86102,7888,7896,1140,8042,8058,8078,8087,8117,8133,115224,8175,8194,445639,4944,8294,93541,8360,8363,656612,125098,3
352,3303913,64805,31200,1712058,31236,31239,31265,31266,31276,6950273,518659,14896,14798,14829,14830,8635,23266,4284,8693,22311,8759,8785,2723810,8857,3893,9936739,516892,5430,9017,15433,107720,955208
1,164825,10275455,16666,9839306,5282227,23676745,32881,91581,39800,33344,15962220,33528,5365075,62829,162381,517202,6433353,2730,5372405,36081,3120,3017,2969,18827,19518,19658,38283,2758,10112,10340,7
12,5794,3347,104150,2912,2450,40326,40585,517055,10913,108242,62097,41679,54680676,62118,753,1030,23673837,54678504,11442,11463,22230,440917,6054,43234,22629,3039,2735067,6144,702,284,176,91688,22947,
47445,1711973,243,10342051,5281875,3776,6224,104926,8755,338,123622,23954,6334,2537,24261,23665760,83975,784,24437,5360315,311,6549,107689,17100,24976875,6654,71245,6442842,62334,54698175,6328154,2476
2,440950,7017,5281873,323,5281167,7175,7292,6335613,7456,7462

$$$$
14,798
  SciTegic10191915303D

  1  0  0  0  0  0            999 V2000
    0.0000    0.0000    0.0000 Na  0  3
M  CHG  1   1   1
M  END
> <Name>
14,798

> <OBJECTID>
9223372453469945867

> <ActiveAidCount>
13

> <AtomChiralCount>
0

> <AtomChiralDefCount>
0

> <AtomChiralUndefCount>
0

> <BondChiralCount>
0

> <BondChiralDefCount>
0

> <BondChiralUndefCount>
0

> <CID>
14798

> <CanonicalSmiles>
[OH-].[Na+]

> <Complexity>
2

> <CovalentUnitCount>
2

> <CreateDate>
2005/03/26 00:00

> <HeavyAtomCount>
2

> <HydrogenBondAcceptorCount>
1

> <HydrogenBondDonorCount>
1

> <IUPACName>
sodium;hydroxide

> <InChI>
InChI=1S/Na.H2O/h;1H2/q+1;/p-1

> <InChIKey>
HEMHJVSKTPXQMS-UHFFFAOYSA-M

> <IsomericSmiles>
[OH-].[Na+]

> <IsotopeAtomCount>
0

> <MeSHHeading>
Sodium Hydroxide

> <MeSHTerm>
Sodium Hydroxide
Hydroxide, Sodium
Soda, Caustic
Caustic Soda

> <MolecularFormula>
HNaO

> <MolecularWeight>
39.997

> <PharmAction>
Noxae
Caustics
Toxic Actions
Chemical Actions and Uses
Specialty Uses of Chemicals

> <RotatableBondCount>
0

> <Smiles>
[Na+].[OH-]

> <SourceCategory>
Chemical Vendors
Legacy Depositors
Research and Development
Curation Efforts
Governmental Organizations
Subscription Services
Journal Publishers

> <Synonym>
SODIUM HYDROXIDE
Caustic soda
1310-73-2
Sodium hydrate
Soda lye
White caustic
Sodium hydroxide (Na(OH))
Aetznatron
Ascarite
Sodium hydroxide solution
Soda, caustic
Natriumhydroxid
Rohrputz
Plung
Collo-Grillrein
Liquid-plumr
Caustic soda solution
Collo-Tapetta
Fuers Rohr
Rohrreiniger Rofix
NaOH
Hydroxyde de sodium
Natriumhydroxyde
Sodium hydroxide dimer
White caustic solution
Sodium hydrate solution
Soda, hydrate
Natrium causticum
Soda, kaustische
Lewis-red devil lye
Sodio(idrossido di)
Caustic soda, liquid
Sodium(hydroxyde de)
Caswell No. 773
MFCD00003548
sodiumhydroxide
Sodium hydroxide (Na2(OH)2)
Natriumhydroxid [German]
Natriumhydroxyde [Dutch]
Sodium hydroxide, pellets
Sodium Oxidanide
Natrium-hydroxid, reinstes
UN 1823 (solid)
UN 1824 (solution)
Hydroxyde de sodium [French]
UNII-55X04QC32I
HSDB 229
Sodio(idrossido di) [Italian]
Sodium(hydroxyde de) [French]
Sodium hydroxide, flake
Sodium hydroxide, pearl
Sodium hydroxide, solid
EINECS 215-185-5
UN1823
UN1824
LYE
EPA Pesticide Chemical Code 075603
NSC 135799
CHEBI:32145
Sodium Hydroxide, 0.1M solution
55X04QC32I
Buffer Solution, pH 8.00
Sodium hydroxide, pure, pellets
Sodium hydroxide, 98%, pure, flakes
Sodium hydroxide, 1N standard solution
Sodium hydroxide, >5% aqueous solution
Sodium hydroxide, extra pure, micropearls
Sodium hydroxide, >2-5% aqueous solution
Sodium hydroxide, 0.1 N standard solution
Sodium hydroxide, 0.2 N standard solution
Sodium hydroxide, 0.5-2% aqueous solution
Sodium hydroxide, for analysis, micropearls
Sodium hydroxide, 98%, extra pure, pellets
Sodium hydroxide, 97+%, ACS reagent, pellets
Sodium hydroxide [NF]
Sodium hydroxide, 98.5%, for analysis, pellets
Sodium Hydroxide [USAN]
Sodium hydroxide, for analysis, 50% solution in water
Sodium hydroxide, extra pure, 33wt.% solution in water
Sodium hydroxide, extra pure, 50 wt% solution in water
sodiumhydroxid
hydroxyl sodium
sodium hydoxide
sodium hydroxid
sodium hyroxide
soude caustique
hydroxide sodium
Lye solution
Sodium hidroxide
Sodium hydroxyde
Sodium-hydroxide
Natrii hydroxidum
Caustic soda, dry
Caustic Soda Flake
Caustic soda, Lye
Caustic soda, bead
Caustic soda, flake
Caustic soda, solid
Caustic soda 50%
Sodium hydroxide, dry
Sodium hydroxide beads
Caustic soda, granular
Sodium hydroxide liquid
Sodium hydroxide, bead
Sodium hydroxide 50%
Sodium hydroxide (TN)
ACMC-1BRPG
Sodium hydroxide (flake)
Sodium hydroxide (liquid)
Sodium hydroxide, granular
Sodium hydroxide, solution
WLN: NA Q
EC 215-185-5
Sodium hydroxide, anhydrous
AC1L24KL
AC1Q1VM0
AC1Q22VM
SODIUM HYDROXIDE, NF
1N Sodium hydroxide solution
Sodium hydroxide pellets, EP
Sodium hydroxide, micropearls
KSC174M8F
inverted question markAEthOAAE
Sodium hydroxide (JP17/NF)
Sodium hydroxide solution 25%
CHEMBL2105794
DTXSID0029634
Sodium Hydroxide 1N Concentrate
Sodium hydroxide, 40% solution
Sodium hydroxide, 50% solution
CTK0H4682
Sodium Hydroxide 10N Concentrate
HEMHJVSKTPXQMS-UHFFFAOYSA-M
Sodium Hydroxide Solution, 2.5N
Sodium Hydroxide, 1.0M solution
Sodium Hydroxide, 2.0M solution
BCP26108
ANW-41118
NSC135799
Sodium hydroxide pellets ACS reagent
AKOS015913904
AKOS015951419
Sodium Hydroxide Pellets Reagent Grade
DB11151
LS-3220
NSC-135799
RL01455
RTR-035606
Sodium hydroxide, 10N aqueous solution
KS-00000V98
SODIUM ION, 1 WATER COORDINATED
TRA-0176350
AN-49012
E-33
SC-18974
SC-21614
Sodium hydroxide pellets Biochemical Grade
Sodium hydroxide, 5% w/v aqueous solution
AB1009827
TR-035606
FT-0645105
S0542
S0543
SODIUM HYDROXIDE BEADS RGT GRADE 1KG
Sodium hydroxide, 20% w/v aqueous solution
Sodium hydroxide, 25% w/v aqueous solution
Sodium hydroxide, 30% w/w aqueous solution
Sodium hydroxide, 40% w/v aqueous solution
Sodium hydroxide, 50% w/w aqueous solution
X4832
Sodium hydroxide, 0.1N Standardized Solution
Sodium hydroxide, 0.5N Standardized Solution
Sodium hydroxide, 1.0N Standardized Solution
Sodium hydroxide, 2.0N Standardized Solution
Sodium hydroxide, 5.0N Standardized Solution
C12569
D01169
Sodium hydroxide, 0.01N Standardized Solution
Sodium hydroxide, 0.05N Standardized Solution
Sodium hydroxide, 10.0N Standardized Solution
Sodium hydroxide, solid [UN1823] [Corrosive]
Sodium hydroxide, solid [UN1823] [Corrosive]
Sodium hydroxide, solution [UN1824] [Corrosive]
J-005935
Sodium hydroxide, solution [UN1824] [Corrosive]
Sodium hydroxide, technical, 30% solution in water
I14-43303
I14-102868
Sodium hydroxide, pellets, Trace Metals Grade 99.99%
Sodium hydroxide, 1.0N Standardized Solution; Ascarite?; Caustic soda

> <TPSA>
1

> <TotalAidCount>
22

> <TotalFormalCharge>
0

> <database>
PubChem Compound

> <matchingCount>
176

> <primaryID>
14798

> <queryTranslation>
7628[CompoundID] OR 244[CompoundID] OR 25059[CompoundID] OR 7618[CompoundID] OR 7641[CompoundID] OR 5053[CompoundID] OR 637511[CompoundID] OR 7714[CompoundID] OR 7762[CompoundID] OR 25429[CompoundID]
OR 8842[CompoundID] OR 7794[CompoundID] OR 637566[CompoundID] OR 7843[CompoundID] OR 174[CompoundID] OR 7870[CompoundID] OR 86102[CompoundID] OR 7888[CompoundID] OR 7896[CompoundID] OR 1140[CompoundID
] OR 8042[CompoundID] OR 8058[CompoundID] OR 8078[CompoundID] OR 8087[CompoundID] OR 8117[CompoundID] OR 8133[CompoundID] OR 115224[CompoundID] OR 8175[CompoundID] OR 8194[CompoundID] OR 445639[Compou
ndID] OR 4944[CompoundID] OR 8294[CompoundID] OR 93541[CompoundID] OR 8360[CompoundID] OR 8363[CompoundID] OR 656612[CompoundID] OR 125098[CompoundID] OR 3352[CompoundID] OR 3303913[CompoundID] OR 648
05[CompoundID] OR 31200[CompoundID] OR 1712058[CompoundID] OR 31236[CompoundID] OR 31239[CompoundID] OR 31265[CompoundID] OR 31266[CompoundID] OR 31276[CompoundID] OR 6950273[CompoundID] OR 518659[Com
poundID] OR 14896[CompoundID] OR 14798[CompoundID] OR 14829[CompoundID] OR 14830[CompoundID] OR 8635[CompoundID] OR 23266[CompoundID] OR 4284[CompoundID] OR 8693[CompoundID] OR 22311[CompoundID] OR 87
59[CompoundID] OR 8785[CompoundID] OR 2723810[CompoundID] OR 8857[CompoundID] OR 3893[CompoundID] OR 9936739[CompoundID] OR 516892[CompoundID] OR 5430[CompoundID] OR 9017[CompoundID] OR 15433[Compound
ID] OR 107720[CompoundID] OR 9552081[CompoundID] OR 164825[CompoundID] OR 10275455[CompoundID] OR 16666[CompoundID] OR 9839306[CompoundID] OR 5282227[CompoundID] OR 23676745[CompoundID] OR 32881[Compo
undID] OR 91581[CompoundID] OR 39800[CompoundID] OR 33344[CompoundID] OR 15962220[CompoundID] OR 33528[CompoundID] OR 5365075[CompoundID] OR 62829[CompoundID] OR 162381[CompoundID] OR 517202[CompoundI
D] OR 6433353[CompoundID] OR 2730[CompoundID] OR 5372405[CompoundID] OR 36081[CompoundID] OR 3120[CompoundID] OR 3017[CompoundID] OR 2969[CompoundID] OR 18827[CompoundID] OR 19518[CompoundID] OR 19658
[CompoundID] OR 38283[CompoundID] OR 2758[CompoundID] OR 10112[CompoundID] OR 10340[CompoundID] OR 712[CompoundID] OR 5794[CompoundID] OR 3347[CompoundID] OR 104150[CompoundID] OR 2912[CompoundID] OR
2450[CompoundID] OR 40326[CompoundID] OR 40585[CompoundID] OR 517055[CompoundID] OR 10913[CompoundID] OR 108242[CompoundID] OR 62097[CompoundID] OR 41679[CompoundID] OR 54680676[CompoundID] OR 62118[C
ompoundID] OR 753[CompoundID] OR 1030[CompoundID] OR 23673837[CompoundID] OR 54678504[CompoundID] OR 11442[CompoundID] OR 11463[CompoundID] OR 22230[CompoundID] OR 440917[CompoundID] OR 6054[CompoundI
D] OR 43234[CompoundID] OR 22629[CompoundID] OR 3039[CompoundID] OR 2735067[CompoundID] OR 6144[CompoundID] OR 702[CompoundID] OR 284[CompoundID] OR 176[CompoundID] OR 91688[CompoundID] OR 22947[Compo
undID] OR 47445[CompoundID] OR 1711973[CompoundID] OR 243[CompoundID] OR 10342051[CompoundID] OR 5281875[CompoundID] OR 3776[CompoundID] OR 6224[CompoundID] OR 104926[CompoundID] OR 8755[CompoundID] O
R 338[CompoundID] OR 123622[CompoundID] OR 23954[CompoundID] OR 6334[CompoundID] OR 2537[CompoundID] OR 24261[CompoundID] OR 23665760[CompoundID] OR 83975[CompoundID] OR 784[CompoundID] OR 24437[Compo
undID] OR 5360315[CompoundID] OR 311[CompoundID] OR 6549[CompoundID] OR 107689[CompoundID] OR 17100[CompoundID] OR 24976875[CompoundID] OR 6654[CompoundID] OR 71245[CompoundID] OR 6442842[CompoundID]
OR 62334[CompoundID] OR 54698175[CompoundID] OR 6328154[CompoundID] OR 24762[CompoundID] OR 440950[CompoundID] OR 7017[CompoundID] OR 5281873[CompoundID] OR 323[CompoundID] OR 5281167[CompoundID] OR 7
175[CompoundID] OR 7292[CompoundID] OR 6335613[CompoundID] OR 7456[CompoundID] OR 7462[CompoundID]

> <resultIndex>
99

> <resultRange>
1-176

> <textQuery>
7628,244,25059,7618,7641,5053,637511,7714,7762,25429,8842,7794,637566,7843,174,7870,86102,7888,7896,1140,8042,8058,8078,8087,8117,8133,115224,8175,8194,445639,4944,8294,93541,8360,8363,656612,125098,3
352,3303913,64805,31200,1712058,31236,31239,31265,31266,31276,6950273,518659,14896,14798,14829,14830,8635,23266,4284,8693,22311,8759,8785,2723810,8857,3893,9936739,516892,5430,9017,15433,107720,955208
1,164825,10275455,16666,9839306,5282227,23676745,32881,91581,39800,33344,15962220,33528,5365075,62829,162381,517202,6433353,2730,5372405,36081,3120,3017,2969,18827,19518,19658,38283,2758,10112,10340,7
12,5794,3347,104150,2912,2450,40326,40585,517055,10913,108242,62097,41679,54680676,62118,753,1030,23673837,54678504,11442,11463,22230,440917,6054,43234,22629,3039,2735067,6144,702,284,176,91688,22947,
47445,1711973,243,10342051,5281875,3776,6224,104926,8755,338,123622,23954,6334,2537,24261,23665760,83975,784,24437,5360315,311,6549,107689,17100,24976875,6654,71245,6442842,62334,54698175,6328154,2476
2,440950,7017,5281873,323,5281167,7175,7292,6335613,7456,7462

$$$$
11,463
  SciTegic10191915303D

 26 26  0  0  0  0            999 V2000
   -0.0610    2.6080    1.6150 C   0  0
   -0.5730    1.9050    0.3840 C   0  0
   -1.5480    2.6720   -0.4750 C   0  0
   -0.1800    0.6520    0.0640 C   0  0
   -0.7250   -0.0430   -1.1770 C   0  0
   -0.5290   -1.5450   -1.1630 C   0  0
    0.5170   -2.1110   -0.5330 C   0  0
    0.7050   -3.6060   -0.5250 C   0  0
    1.5170   -1.2410    0.1870 C   0  0
    0.8150   -0.0990    0.9340 C   0  0
   -0.3940    2.1510    2.5470 H   0  0
   -0.3940    3.6460    1.6150 H   0  0
    1.0290    2.6080    1.6150 H   0  0
   -1.0700    2.9590   -1.4120 H   0  0
   -2.4410    2.0720   -0.6470 H   0  0
   -1.8530    3.5850    0.0370 H   0  0
   -1.7920    0.1610   -1.2780 H   0  0
   -0.2410    0.3710   -2.0620 H   0  0
   -1.2500   -2.1690   -1.6710 H   0  0
    0.2950   -4.1010   -1.4050 H   0  0
    0.2230   -4.0350    0.3540 H   0  0
    1.7670   -3.8460   -0.4720 H   0  0
    2.1030   -1.8400    0.8860 H   0  0
    2.2200   -0.8340   -0.5410 H   0  0
    0.2860   -0.5020    1.7980 H   0  0
    1.5720    0.5830    1.3230 H   0  0
  1  2  1  0
  2  3  1  0
  2  4  2  0
  4  5  1  0
  4 10  1  0
  5  6  1  0
  6  7  2  0
  7  8  1  0
  7  9  1  0
  9 10  1  0
  1 11  1  0
  1 12  1  0
  1 13  1  0
  3 14  1  0
  3 15  1  0
  3 16  1  0
  5 17  1  0
  5 18  1  0
  6 19  1  0
  8 20  1  0
  8 21  1  0
  8 22  1  0
  9 23  1  0
  9 24  1  0
 10 25  1  0
 10 26  1  0
M  END
> <Name>
11,463

> <OBJECTID>
9223372457764913163

> <ActiveAidCount>
2

> <AtomChiralCount>
0

> <AtomChiralDefCount>
0

> <AtomChiralUndefCount>
0

> <BondChiralCount>
0

> <BondChiralDefCount>
0

> <BondChiralUndefCount>
0

> <CID>
11463

> <CanonicalSmiles>
CC1=CCC(=C(C)C)CC1

> <Complexity>
178

> <CovalentUnitCount>
1

> <CreateDate>
2005/03/27 00:00

> <HeavyAtomCount>
10

> <HydrogenBondAcceptorCount>
0

> <HydrogenBondDonorCount>
0

> <IUPACName>
1-methyl-4-propan-2-ylidenecyclohexene

> <InChI>
InChI=1S/C10H16/c1-8(2)10-6-4-9(3)5-7-10/h4H,5-7H2,1-3H3

> <InChIKey>
MOYAFQVGZZPNRA-UHFFFAOYSA-N

> <IsomericSmiles>
CC1=CCC(=C(C)C)CC1

> <IsotopeAtomCount>
0

> <MeSHHeading>
terpinolene

> <MeSHTerm>
terpinolene
4-isopropylidene-1-methylcyclohexene

> <MolecularFormula>
C10H16

> <MolecularWeight>
136.23

> <RotatableBondCount>
0

> <Smiles>
C\C(=C(\CCC(C)=C1)/C1)\C

> <SourceCategory>
Legacy Depositors
Chemical Vendors
Research and Development
Curation Efforts
Governmental Organizations
NIH Initiatives
Subscription Services
Journal Publishers

> <Synonym>
TERPINOLENE
586-62-9
Isoterpinene
Terpinolen
alpha-Terpinolene
p-Mentha-1,4(8)-diene
1,4(8)-p-Menthadiene
4-Isopropylidene-1-methylcyclohexene
Tereben
p-Menth-1,4(8)-diene
Cyclohexene, 1-methyl-4-(1-methylethylidene)-
Nofmer TP
1,4(8)-Terpadiene
1-Methyl-4-(1-methylethylidene)cyclohexene
FEMA Number 3046
1-Methyl-4-isopropylidene-1-cyclohexene
UNII-N9830X5KSL
4-isopropylidene-1-methyl-cyclohexene
.gamma.-Terpinolene
FEMA No. 3046
HSDB 5702
EINECS 209-578-0
1-Methyl-4-(1-methylethylidene)-1-cyclohexene
UN2541
p-Meth-1-en-8-yl-formate
1-methyl-4-(propan-2-ylidene)cyclohexene
AI3-24378
CHEBI:9457
N9830X5KSL
1-methyl-4-(propan-2-ylidene)cyclohex-1-ene
MOYAFQVGZZPNRA-UHFFFAOYSA-N
1-METHYL-4-PROPAN-2-YLIDENE-CYCLOHEXENE
MFCD00049191
Cyclohexene, 3-methyl-6-(1-methylethylidene)- (9CI)
1-methyl-4-propan-2-ylidenecyclohexene
1-methyl-4-(propan-2-ylidene)cyclohexene p-mentha-1,4(8)-diene
delta-Terpinene
alpha -Terpinolene
.alpha.-Terpinolene
.alpha.- Terpinolen
Terpinolene 95 PFP
Terpinolene, >=90%
TERPINOLENE with GC
AC1L1XEP
1,4(8)-paramenthadiene
DSSTox_CID_7222
TERPINOLENE 95 C
bmse000504
EC 209-578-0
DSSTox_RID_78355
DSSTox_GSID_27222
CHEMBL454697
Terpinolene, analytical standard
DTXSID0027222
CTK5C9029
FEMA 3046
ZINC968225
Tox21_303268
5733AF
AKOS028108377
LMPR0102090062
LS-3108
NE11041
Terpinolene, technical, >=85% (GC)
UN 2541
Terpinolene, purum, >=95.0% (GC)
NCGC00256963-01
69073-38-7
AN-21504
CAS-586-62-9
ZB015523
Terpinolene [UN2541] [Flammable liquid]
Terpinolene 1000 microg/mL in Isopropanol
TR-020377
1-methyl-4-(1-methylethylidene)-cyclohexene
FT-0632449
Terpinolene [UN2541] [Flammable liquid]
C06075
1-Methyl-4-(1-methylethylidene)-1-cyclohexene #
1-Methyl-4-(1-methylethylidene)cyclohexene, 9CI
Q-201793
I14-108647

> <TPSA>
0

> <TotalAidCount>
213

> <TotalFormalCharge>
0

> <XLogP>
2.8

> <database>
PubChem Compound

> <matchingCount>
176

> <primaryID>
11463

> <queryTranslation>
7628[CompoundID] OR 244[CompoundID] OR 25059[CompoundID] OR 7618[CompoundID] OR 7641[CompoundID] OR 5053[CompoundID] OR 637511[CompoundID] OR 7714[CompoundID] OR 7762[CompoundID] OR 25429[CompoundID]
OR 8842[CompoundID] OR 7794[CompoundID] OR 637566[CompoundID] OR 7843[CompoundID] OR 174[CompoundID] OR 7870[CompoundID] OR 86102[CompoundID] OR 7888[CompoundID] OR 7896[CompoundID] OR 1140[CompoundID
] OR 8042[CompoundID] OR 8058[CompoundID] OR 8078[CompoundID] OR 8087[CompoundID] OR 8117[CompoundID] OR 8133[CompoundID] OR 115224[CompoundID] OR 8175[CompoundID] OR 8194[CompoundID] OR 445639[Compou
ndID] OR 4944[CompoundID] OR 8294[CompoundID] OR 93541[CompoundID] OR 8360[CompoundID] OR 8363[CompoundID] OR 656612[CompoundID] OR 125098[CompoundID] OR 3352[CompoundID] OR 3303913[CompoundID] OR 648
05[CompoundID] OR 31200[CompoundID] OR 1712058[CompoundID] OR 31236[CompoundID] OR 31239[CompoundID] OR 31265[CompoundID] OR 31266[CompoundID] OR 31276[CompoundID] OR 6950273[CompoundID] OR 518659[Com
poundID] OR 14896[CompoundID] OR 14798[CompoundID] OR 14829[CompoundID] OR 14830[CompoundID] OR 8635[CompoundID] OR 23266[CompoundID] OR 4284[CompoundID] OR 8693[CompoundID] OR 22311[CompoundID] OR 87
59[CompoundID] OR 8785[CompoundID] OR 2723810[CompoundID] OR 8857[CompoundID] OR 3893[CompoundID] OR 9936739[CompoundID] OR 516892[CompoundID] OR 5430[CompoundID] OR 9017[CompoundID] OR 15433[Compound
ID] OR 107720[CompoundID] OR 9552081[CompoundID] OR 164825[CompoundID] OR 10275455[CompoundID] OR 16666[CompoundID] OR 9839306[CompoundID] OR 5282227[CompoundID] OR 23676745[CompoundID] OR 32881[Compo
undID] OR 91581[CompoundID] OR 39800[CompoundID] OR 33344[CompoundID] OR 15962220[CompoundID] OR 33528[CompoundID] OR 5365075[CompoundID] OR 62829[CompoundID] OR 162381[CompoundID] OR 517202[CompoundI
D] OR 6433353[CompoundID] OR 2730[CompoundID] OR 5372405[CompoundID] OR 36081[CompoundID] OR 3120[CompoundID] OR 3017[CompoundID] OR 2969[CompoundID] OR 18827[CompoundID] OR 19518[CompoundID] OR 19658
[CompoundID] OR 38283[CompoundID] OR 2758[CompoundID] OR 10112[CompoundID] OR 10340[CompoundID] OR 712[CompoundID] OR 5794[CompoundID] OR 3347[CompoundID] OR 104150[CompoundID] OR 2912[CompoundID] OR
2450[CompoundID] OR 40326[CompoundID] OR 40585[CompoundID] OR 517055[CompoundID] OR 10913[CompoundID] OR 108242[CompoundID] OR 62097[CompoundID] OR 41679[CompoundID] OR 54680676[CompoundID] OR 62118[C
ompoundID] OR 753[CompoundID] OR 1030[CompoundID] OR 23673837[CompoundID] OR 54678504[CompoundID] OR 11442[CompoundID] OR 11463[CompoundID] OR 22230[CompoundID] OR 440917[CompoundID] OR 6054[CompoundI
D] OR 43234[CompoundID] OR 22629[CompoundID] OR 3039[CompoundID] OR 2735067[CompoundID] OR 6144[CompoundID] OR 702[CompoundID] OR 284[CompoundID] OR 176[CompoundID] OR 91688[CompoundID] OR 22947[Compo
undID] OR 47445[CompoundID] OR 1711973[CompoundID] OR 243[CompoundID] OR 10342051[CompoundID] OR 5281875[CompoundID] OR 3776[CompoundID] OR 6224[CompoundID] OR 104926[CompoundID] OR 8755[CompoundID] O
R 338[CompoundID] OR 123622[CompoundID] OR 23954[CompoundID] OR 6334[CompoundID] OR 2537[CompoundID] OR 24261[CompoundID] OR 23665760[CompoundID] OR 83975[CompoundID] OR 784[CompoundID] OR 24437[Compo
undID] OR 5360315[CompoundID] OR 311[CompoundID] OR 6549[CompoundID] OR 107689[CompoundID] OR 17100[CompoundID] OR 24976875[CompoundID] OR 6654[CompoundID] OR 71245[CompoundID] OR 6442842[CompoundID]
OR 62334[CompoundID] OR 54698175[CompoundID] OR 6328154[CompoundID] OR 24762[CompoundID] OR 440950[CompoundID] OR 7017[CompoundID] OR 5281873[CompoundID] OR 323[CompoundID] OR 5281167[CompoundID] OR 7
175[CompoundID] OR 7292[CompoundID] OR 6335613[CompoundID] OR 7456[CompoundID] OR 7462[CompoundID]

> <resultIndex>
100

> <resultRange>
1-176

> <textQuery>
7628,244,25059,7618,7641,5053,637511,7714,7762,25429,8842,7794,637566,7843,174,7870,86102,7888,7896,1140,8042,8058,8078,8087,8117,8133,115224,8175,8194,445639,4944,8294,93541,8360,8363,656612,125098,3
352,3303913,64805,31200,1712058,31236,31239,31265,31266,31276,6950273,518659,14896,14798,14829,14830,8635,23266,4284,8693,22311,8759,8785,2723810,8857,3893,9936739,516892,5430,9017,15433,107720,955208
1,164825,10275455,16666,9839306,5282227,23676745,32881,91581,39800,33344,15962220,33528,5365075,62829,162381,517202,6433353,2730,5372405,36081,3120,3017,2969,18827,19518,19658,38283,2758,10112,10340,7
12,5794,3347,104150,2912,2450,40326,40585,517055,10913,108242,62097,41679,54680676,62118,753,1030,23673837,54678504,11442,11463,22230,440917,6054,43234,22629,3039,2735067,6144,702,284,176,91688,22947,
47445,1711973,243,10342051,5281875,3776,6224,104926,8755,338,123622,23954,6334,2537,24261,23665760,83975,784,24437,5360315,311,6549,107689,17100,24976875,6654,71245,6442842,62334,54698175,6328154,2476
2,440950,7017,5281873,323,5281167,7175,7292,6335613,7456,7462

$$$$
11,442
  SciTegic10191915303D

 48 49  0  0  1  0            999 V2000
    1.1910   -4.0360   -5.5550 C   0  0
    0.9730   -2.8490   -4.9650 C   0  0
    0.4800   -2.8340   -3.5430 C   0  0
    0.6760   -1.4710   -2.9300 C   0  0
   -0.2840   -0.7500   -2.3380 C   0  0
   -1.7200   -1.1740   -2.1780 C   0  0
    0.2440    0.5720   -1.8330 C   0  0  3  0  0  0
    1.7410    0.5730   -2.2100 C   0  0
    1.9400   -0.7520   -2.9010 C   0  0
    2.9870   -1.1500   -3.3570 O   0  0
    0.0860    0.6560   -0.4230 O   0  0
   -1.0640    1.2270   -0.0760 C   0  0
   -1.2340    1.4510    1.4160 C   0  0  3  0  0  0
   -0.3450    0.6970    2.3830 C   0  0  3  0  0  0
    0.2020    1.4160    3.6020 C   0  0
    1.3640    2.0860    3.5210 C   0  0
    1.8750    2.7870    4.7510 C   0  0
    2.0940    2.1000    2.2050 C   0  0
   -1.8240    0.3590    2.2920 C   0  0
   -2.1980   -0.9740    1.6530 C   0  0
   -2.7480    0.7960    3.4240 C   0  0
   -1.9200    1.5520   -0.8650 O   0  0
    1.0500   -5.0140   -5.1200 H   0  0
    1.5430   -3.9870   -6.5750 H   0  0
    1.1760   -1.9830   -5.5770 H   0  0
   -0.5750   -3.1060   -3.5130 H   0  0
    1.0140   -3.5830   -2.9580 H   0  0
   -1.8570   -2.2550   -2.1670 H   0  0
   -2.3190   -0.7710   -2.9940 H   0  0
   -2.1210   -0.7790   -1.2440 H   0  0
   -0.2880    1.3930   -2.2930 H   0  0
    2.3820    0.6450   -1.3430 H   0  0
    1.9820    1.3850   -2.8800 H   0  0
   -1.4850    2.4780    1.6850 H   0  0
    0.3450   -0.0270    1.9470 H   0  0
   -0.3900    1.3510    4.5030 H   0  0
    1.5420    2.3300    5.6830 H   0  0
    1.5420    3.8250    4.7510 H   0  0
    2.9650    2.7870    4.7510 H   0  0
    1.3860    2.2450    1.3900 H   0  0
    2.8590    2.8770    2.2150 H   0  0
    2.5930    1.1440    2.0480 H   0  0
   -1.4450   -1.3060    0.9370 H   0  0
   -3.1480   -0.8950    1.1240 H   0  0
   -2.3020   -1.7500    2.4110 H   0  0
   -2.5610    1.8270    3.7260 H   0  0
   -2.6110    0.1620    4.3000 H   0  0
   -3.7920    0.7220    3.1200 H   0  0
  1  2  2  0
  2  3  1  0
  3  4  1  0
  4  5  2  0
  4  9  1  0
  5  6  1  0
  5  7  1  0
  7  8  1  0
  7 11  1  0
  8  9  1  0
  9 10  2  0
 11 12  1  0
 12 13  1  0
 12 22  2  0
 13 14  1  0
 13 19  1  0
 14 15  1  0
 14 19  1  0
 15 16  2  0
 16 17  1  0
 16 18  1  0
 19 20  1  0
 19 21  1  0
  1 23  1  0
  1 24  1  0
  2 25  1  0
  3 26  1  0
  3 27  1  0
  6 28  1  0
  6 29  1  0
  6 30  1  0
  7 31  1  0
  8 32  1  0
  8 33  1  0
 13 34  1  0
 14 35  1  0
 15 36  1  0
 17 37  1  0
 17 38  1  0
 17 39  1  0
 18 40  1  0
 18 41  1  0
 18 42  1  0
 20 43  1  0
 20 44  1  0
 20 45  1  0
 21 46  1  0
 21 47  1  0
 21 48  1  0
M  END
> <Name>
11,442

> <OBJECTID>
9223372462059880459

> <ActiveAidCount>
71

> <AtomChiralCount>
3

> <AtomChiralDefCount>
0

> <AtomChiralUndefCount>
3

> <BondChiralCount>
0

> <BondChiralDefCount>
0

> <BondChiralUndefCount>
0

> <CID>
11442

> <CanonicalSmiles>
CC1=C(C(=O)CC1OC(=O)C2C(C2(C)C)C=C(C)C)CC=C

> <Complexity>
574

> <CovalentUnitCount>
1

> <CreateDate>
2005/03/26 00:00

> <HeavyAtomCount>
22

> <HydrogenBondAcceptorCount>
3

> <HydrogenBondDonorCount>
0

> <IUPACName>
(2-methyl-4-oxo-3-prop-2-enylcyclopent-2-en-1-yl) 2,2-dimethyl-3-(2-methylprop-1-enyl)cyclopropane-1-carboxylate

> <InChI>
InChI=1S/C19H26O3/c1-7-8-13-12(4)16(10-15(13)20)22-18(21)17-14(9-11(2)3)19(17,5)6/h7,9,14,16-17H,1,8,10H2,2-6H3

> <InChIKey>
ZCVAOQKBXKSDMS-UHFFFAOYSA-N

> <IsomericSmiles>
CC1=C(C(=O)CC1OC(=O)C2C(C2(C)C)C=C(C)C)CC=C

> <IsotopeAtomCount>
0

> <MeSHHeading>
Allethrin

> <MeSHTerm>
Allethrins
Allethrin

> <MolecularFormula>
C19H26O3

> <MolecularWeight>
302.4

> <PharmAction>
Insecticides
Toxic Actions
Chemical Actions and Uses
Pesticides
Agrochemicals
Specialty Uses of Chemicals

> <RotatableBondCount>
6

> <Smiles>
C=CCC1=C(C(OC(=O)C2C(C)(C)C2\C=C(/C)\C)CC1=O)C

> <SourceCategory>
Legacy Depositors
Chemical Vendors
Curation Efforts
Governmental Organizations
NIH Initiatives
Subscription Services
Journal Publishers
Research and Development

> <Synonym>
ALLETHRIN
Bioallethrin
584-79-2
Esbiothrin
Pynamin
Allethrine
Esbioallethrin
Esdepallethrine
Pallethrine
Pyresin
Pyresyn
trans-Allethrin
d-cis,trans-Allethrin
Allyl cinerin I
Necarboxylic acid
d-T-Allethrin
Wasp Killer II
Esbiol
Cinerin I allyl homolog
S-BIOALLETHRIN
MGK allethrin concentrate
Allyl homolog of cinerin I
d-Allethrolone chrysanthemumate
Bioallethrin [BAN]
D-Allethrin
84030-86-4
D-TRANS-ALLETHRIN
FMC 249
NIA 249
FDA 1446
3-Allyl-2-methyl-4-oxo-2-cyclopenten-1-yl chrysanthemate
Bioaletrina
Depallethrin
Exthrin
RU 16121
Binamin forte
Pynamin-forte
(+)-Allethronyl (+)-trans-chrysanthemumate
Cyclopropanecarboxylic acid, 2,2-dimethyl-3-(2-methyl-1-propenyl)-, 2-methyl-4-oxo-3-(2-propenyl)-2-cyclopenten-1-yl ester
AI 3-29024
CHEBI:34572
Wasp Stopper CF
(+)-Allelrethonyl (+)-cis,trans-chrysanthemate
Bioallethrin (BAN)
Bioallethrin [BSI]
EPA Pesticide Chemical Code 004003
22431-63-6
Cyclopropanecarboxylic acid, 2,2-dimethyl-3-(2-methyl-1-propenyl)-, (1S)-2-methyl-4-oxo-3-(2-propenyl)-2-cyclopenten-1-yl ester, (1R,3R)-
Caswell No. 025
NCGC00163953-03
Allethrin [BSI:ISO]
Bioaltrina [Portuguese]
Esbiol concentrate 90%
Bioaletrina [Portuguese]
3-Allyl-4-keto-2-methylcyclopentenyl chrysanthemum monocarboxylate
Allethrine [ISO-French]
d-trans-(1-Methyl-2-allyl-3-oxo-1-cyclopenten-5-yl)chrysanthemumate
(2-methyl-4-oxo-3-prop-2-enylcyclopent-2-en-1-yl) 2,2-dimethyl-3-(2-methylprop-1-enyl)cyclopropane-1-carboxylate
3-allyl-2-methyl-4-oxocyclopent-2-en-1-yl 2,2-dimethyl-3-(2-methylprop-1-en-1-yl)cyclopropanecarboxylate
Cyclopropanecarboxylic acid, 2,2-dimethyl-3-(2-methyl-1-propenyl)-, 2-methyl-4-oxo-3-(2-propenyl)-2-cyclopenten-1-yl ester, (1-alpha(S*),3-beta)-(+-)-
Allethrin coil
W-105386
Esbiol TM Intermediate 3336
CCRIS 2494
28434-00-6
d-cis-trans-Allethrin
HSDB 1511
cis-Allethrin
OMS 3045
EINECS 209-542-4
EINECS 249-013-5
NSC 11782
d-Allethrolone d-trans-chrysanthemumate
ENT 17,510
EPA Pesticide Chemical Code 004001
2,2-Dimethyl-3-(2-methyl-1-propenyl)cyclopropanecarboxylic acid 2-methyl-4-oxo-3-(2-propenyl)-2-cyclopenten-1-yl ester
42534-61-2
(+)-trans-Allethrin
D-trans Allethrin
BRN 2059862
Allylrethronyl dl-cis-trans-chrysanthemate
RU 27436
(3-allyl-2-methyl-4-oxo-cyclopent-2-en-1-yl) 2,2-dimethyl-3-(2-methylprop-1-enyl)cyclopropanecarboxylate
2-methyl-4-oxo-3-(prop-2-en-1-yl)cyclopent-2-en-1-yl 2,2-dimethyl-3-(2-methylprop-1-en-1-yl)cyclopropanecarboxylate
Cyclopropanecarboxylic acid, 2,2-dimethyl-3-(2-methyl-1-propenyl)-, (1R)-2-methyl-4-oxo-3-(2-propenyl)-2-cyclopenten-1-yl ester. (1S.3S)-rel-
Cyclopropanecarboxylic acid, 2,2-dimethyl-3-(2-methylpropenyl)-, (+)-(E)-, ester with (+)-2-allyl-4-hydroxy-3-methyl-2-cyclopenten-1-one
AI3-17510
(+-)-Allerethonyl (+-)-cis,trans-chrysanthemate
alpha-dl-trans-Allethrin
Allethrolone ester of chrysanthemummonocarboxylic acid
(+)-trans-Chrysanthemumic acid ester of (+-)-allethrolone
Bioallathrin
Pallethrin
Pyrocide
3-Allyl-4-keto-2-methylcyclopentenyl chrysanthemummonocarboxylate
Allyl cinerin
Es-Bioallethrin
dl-3-Allyl-2-methyl-4-oxocyclopent-2-enyl dl-cis trans chrysanthemate
(RS)-3-Allyl-2-methyl-4-oxocyclopent-2-enyl (+-)-cis,trans-chrysanthemate
Allethrin 1
2-Allyl-4-hydroxy-3-methyl-2-cyclopenten-1-one ester of chrysanthemummono-carboxylic acid
D,L-2-Allyl-4-hydroxy-3-methyl-2-cyclopenten-1-one-D,L-chrysanthemum monocarboxylate
2,2-Dimethyl-3-(2-methyl-1-propenyl)cyclopropanecarboxylic acid 2-methyl-4-oxo-3-(2-propenyl)-2- cyclopenten-1-yl ester
2,2-Dimethyl-3-(2-methyl-1-propenyl)cyclopropanecarboxylic acid, ester with 2-allyl-4-hydroxy-3-methyl-2-cyclopenten-1-one
2-Methyl-4-oxo-3-(2-propenyl)-2-cyclopenten-1-yl 2,2-dimethyl-3-(2-methyl-1-propenyl)cyclopropanecar
3-Allyl-4-methyl-2-oxo-3-cyclopenten-1-yl ester of 2,2-dimethyl-3-(2-methylpropenyl)cyclopropanecarboxylic acid
Cyclopropanecarboxylic acid, 2,2-dimethyl-3-(2-methyl-1-propenyl)-, 2-methyl-4-oxo-3-(2-propenyl)-2-cyclopentene-1-yl ester
dl-2-Allyl-4-hydroxy-3-methyl-2-cyclopenten-1-one ester of d-trans-2,2-dimethyl-3-(2-methylpropenyl)
dl-2-Allyl-4-hydroxy-3-methyl-2-cyclopenten-1-one ester of dl cis/trans 2,2-dimethyl-3-(2-methylpropenyl)-cyclopropanecarboxylic acid
D -trans-Allethrin
S-trans-Bioallethrin
Allethrin, DL-trans-
(+)-trans-Bioallethrin
AC1Q6IHC
AC1L1XD1
Allethrin, cis-(+/-)-
DSSTox_CID_15180
DSSTox_RID_79245
Duocide [veterinary] (TN)
DSSTox_GSID_35180
SCHEMBL26963
CHEMBL1872535
DTXSID8035180
CTK4I6352
D,L-chrysanthemum monocarboxylate
Chrysanthemummonocarboxylic acid, 3-allyl-3-methyl-4-oxo-2-cyclopenten-1-yl ester
ZCVAOQKBXKSDMS-UHFFFAOYSA-N
(RS)-3-Allyl-2-methyl-4-oxocyclopent-2-enyl (1R,3R)-2,2-dimethyl-3-(2-methylprop-1-enyl)cyclopropanecarboxylate
2-Cyclopenten-1-one, 2-allyl-4-hydroxy-3-methyl-, 2,2-dimethyl-3-(2-methylpropenyl)cyclopropanecarboxylate
3-Allyl-2-methyl-4-oxocyclopent-2-en-1-yl (1R-(1alpha(S*),3beta))-2,2-dimethyl-3-(2-methylprop-1-enyl)cyclopropanecarboxylate
Cyclopropanecarboxylic acid, 2,2-dimethyl-3-(2-methyl-1-propen-1-yl)-, 2-methyl-4-oxo-3-(2-propen-1-yl)-2-cyclopenten-1-yl ester
Cyclopropanecarboxylic acid, 2,2-dimethyl-3-(2-methyl-1-propenyl)-, 2-methyl-4-oxo-3-(2-propenyl)-2-cyclopenten-1-yl ester, (1R-(1alpha(S*),3beta))-
Cyclopropanecarboxylicacid, 2,2-dimethyl-3-(2-methyl-1-propen-1-yl)-,(1R)-2-methyl-4-oxo-3-(2-propen-1-yl)-2-cyclopenten-1-yl ester, (1S,3S)-rel-
NSC11782
Tox21_400074
D-allethrolone d-trans-chrysanthemate
ENT 16275
ENT 17510
Esbiol concentrate 90% (Salt/Mix)
KM0202
MFCD00045443
NSC-11782
AKOS015900219
ACM22431636
NCGC00163953-01
NCGC00163953-02
NCGC00163953-04
NCGC00164471-01
2-Methyl-4-oxo-3-(2-propenyl)-2-cyclopenten-1-yl 2,2-dimethyl-3-(2-methyl-1-propenyl)cyclopropanecarboxylate
34624-48-1
3972-20-1
AN-35944
AN-46106
AS-11751
CAS-584-79-2
CC-23848
Cyclopropanecarboxylic acid, 2,2-dimethyl-3-(2-methyl-1-propenyl)-, (1R)-2-methyl-4-oxo-3-(2-propenyl)-2-cyclopenten-1-yl ester, (1R,3R)-rel-
Cyclopropanecarboxylic acid, 2,2-dimethyl-3-(2-methyl-1-propenyl)-, (1R)-2-methyl-4-oxo-3-(2-propenyl)-2-cyclopenten-1-yl ester, (1S,3S)-rel-
Cyclopropanecarboxylic acid, 2,2-dimethyl-3-(2-methyl-1-propenyl)-, 2-methyl-4-oxo-3-(2-propenyl)-2-cyclopenten-1-yl ester, [1R-[1.alpha.(S*),3.beta.]]-
LS-58688
LS-58705
LS-58706
SC-15779
SC-18164
FT-0647652
Allethrin, PESTANAL(R), analytical standard
Esbiothrin, PESTANAL(R), analytical standard
C14337
D07530
Bioallethrin, PESTANAL(R), analytical standard
584A792
C-18879
J-014709
I14-10139
I14-19233
(.+-.)-Allelrethonyl (.+-.)-cis,trans-chrysanthemate
(+)-trans-Chrysanthemumic acid ester of (.+-.)-allethrolone
WLN: L5V BUTJ B2U1 C1 DOV- BL3TJ A1 A1 C1UY1&1
2-Allyl-4-hydroxy-3-methyl-2-cyclopenten-1-one ester of 2,2-dimethyl-3-(2-methyl propenyl) cyclopropane carboxylic acid
3-Allyl-2-methyl-4-oxo-2-cyclopenten-1-yl 2,2-dimethyl-3-(2-methyl-1-propenyl)cyclopropanecarboxylate, (1R-(1.alpha.(S*),3.beta.))-
3-allyl-2-methyl-4-oxocyclopent-2-enyl 2,2-dimethyl-3-(2-methylprop-1-enyl)cyclopropanecarboxylate
Allethrin 10 microg/mL in Cyclohexane. Short expiry date due to chemical nature of component(s)
Cyclopropanecarboxylic acid, 2,2-dimethyl-3-(2-methyl-1-propenyl)-, ster with 2-allyl-4-hydroxy-3-methyl-2-cyclopenten-1-one, trans-(+-)-
Cyclopropanecarboxylic acid, 2,2-dimethyl-3-(2-methylpropenyl)-, ester with 2-allyl-4-hydroxy-3-methyl-2-cyclopenten-1-one (VAN)
Cyclopropanecarboxylic acid,2-dimethyl-3-(2-methyl-1-propenyl)-, 2-methyl-4-oxo-3-(2-propenyl)-2-cyclopenten-1-yl ester (VA
Cyclopropanecarboxylic acid,2-dimethyl-3-(2-methyl-1-propenyl)-, 2-methyl-4-oxo-3-(2-propenyl)-2-cyclopenten-1-yl ester, d-trans-
Cyclopropanecarboxylic acid,2-dimethyl-3-(2-methyl-1-propenyl)-, 2-methyl-4-oxo-3-(2-propenyl)-2-cyclopentene-1-yl ester
Cyclopropanecarboxylic acid,2-dimethyl-3-(2-methylpropenyl)-, ester with 2-allyl-4-hydroxy-3-methyl-2-cyclopenten-1-one

> <TPSA>
43.4

> <TotalAidCount>
303

> <TotalFormalCharge>
0

> <XLogP>
4.8

> <database>
PubChem Compound

> <matchingCount>
176

> <primaryID>
11442

> <queryTranslation>
7628[CompoundID] OR 244[CompoundID] OR 25059[CompoundID] OR 7618[CompoundID] OR 7641[CompoundID] OR 5053[CompoundID] OR 637511[CompoundID] OR 7714[CompoundID] OR 7762[CompoundID] OR 25429[CompoundID]
OR 8842[CompoundID] OR 7794[CompoundID] OR 637566[CompoundID] OR 7843[CompoundID] OR 174[CompoundID] OR 7870[CompoundID] OR 86102[CompoundID] OR 7888[CompoundID] OR 7896[CompoundID] OR 1140[CompoundID
] OR 8042[CompoundID] OR 8058[CompoundID] OR 8078[CompoundID] OR 8087[CompoundID] OR 8117[CompoundID] OR 8133[CompoundID] OR 115224[CompoundID] OR 8175[CompoundID] OR 8194[CompoundID] OR 445639[Compou
ndID] OR 4944[CompoundID] OR 8294[CompoundID] OR 93541[CompoundID] OR 8360[CompoundID] OR 8363[CompoundID] OR 656612[CompoundID] OR 125098[CompoundID] OR 3352[CompoundID] OR 3303913[CompoundID] OR 648
05[CompoundID] OR 31200[CompoundID] OR 1712058[CompoundID] OR 31236[CompoundID] OR 31239[CompoundID] OR 31265[CompoundID] OR 31266[CompoundID] OR 31276[CompoundID] OR 6950273[CompoundID] OR 518659[Com
poundID] OR 14896[CompoundID] OR 14798[CompoundID] OR 14829[CompoundID] OR 14830[CompoundID] OR 8635[CompoundID] OR 23266[CompoundID] OR 4284[CompoundID] OR 8693[CompoundID] OR 22311[CompoundID] OR 87
59[CompoundID] OR 8785[CompoundID] OR 2723810[CompoundID] OR 8857[CompoundID] OR 3893[CompoundID] OR 9936739[CompoundID] OR 516892[CompoundID] OR 5430[CompoundID] OR 9017[CompoundID] OR 15433[Compound
ID] OR 107720[CompoundID] OR 9552081[CompoundID] OR 164825[CompoundID] OR 10275455[CompoundID] OR 16666[CompoundID] OR 9839306[CompoundID] OR 5282227[CompoundID] OR 23676745[CompoundID] OR 32881[Compo
undID] OR 91581[CompoundID] OR 39800[CompoundID] OR 33344[CompoundID] OR 15962220[CompoundID] OR 33528[CompoundID] OR 5365075[CompoundID] OR 62829[CompoundID] OR 162381[CompoundID] OR 517202[CompoundI
D] OR 6433353[CompoundID] OR 2730[CompoundID] OR 5372405[CompoundID] OR 36081[CompoundID] OR 3120[CompoundID] OR 3017[CompoundID] OR 2969[CompoundID] OR 18827[CompoundID] OR 19518[CompoundID] OR 19658
[CompoundID] OR 38283[CompoundID] OR 2758[CompoundID] OR 10112[CompoundID] OR 10340[CompoundID] OR 712[CompoundID] OR 5794[CompoundID] OR 3347[CompoundID] OR 104150[CompoundID] OR 2912[CompoundID] OR
2450[CompoundID] OR 40326[CompoundID] OR 40585[CompoundID] OR 517055[CompoundID] OR 10913[CompoundID] OR 108242[CompoundID] OR 62097[CompoundID] OR 41679[CompoundID] OR 54680676[CompoundID] OR 62118[C
ompoundID] OR 753[CompoundID] OR 1030[CompoundID] OR 23673837[CompoundID] OR 54678504[CompoundID] OR 11442[CompoundID] OR 11463[CompoundID] OR 22230[CompoundID] OR 440917[CompoundID] OR 6054[CompoundI
D] OR 43234[CompoundID] OR 22629[CompoundID] OR 3039[CompoundID] OR 2735067[CompoundID] OR 6144[CompoundID] OR 702[CompoundID] OR 284[CompoundID] OR 176[CompoundID] OR 91688[CompoundID] OR 22947[Compo
undID] OR 47445[CompoundID] OR 1711973[CompoundID] OR 243[CompoundID] OR 10342051[CompoundID] OR 5281875[CompoundID] OR 3776[CompoundID] OR 6224[CompoundID] OR 104926[CompoundID] OR 8755[CompoundID] O
R 338[CompoundID] OR 123622[CompoundID] OR 23954[CompoundID] OR 6334[CompoundID] OR 2537[CompoundID] OR 24261[CompoundID] OR 23665760[CompoundID] OR 83975[CompoundID] OR 784[CompoundID] OR 24437[Compo
undID] OR 5360315[CompoundID] OR 311[CompoundID] OR 6549[CompoundID] OR 107689[CompoundID] OR 17100[CompoundID] OR 24976875[CompoundID] OR 6654[CompoundID] OR 71245[CompoundID] OR 6442842[CompoundID]
OR 62334[CompoundID] OR 54698175[CompoundID] OR 6328154[CompoundID] OR 24762[CompoundID] OR 440950[CompoundID] OR 7017[CompoundID] OR 5281873[CompoundID] OR 323[CompoundID] OR 5281167[CompoundID] OR 7
175[CompoundID] OR 7292[CompoundID] OR 6335613[CompoundID] OR 7456[CompoundID] OR 7462[CompoundID]

> <resultIndex>
101

> <resultRange>
1-176

> <textQuery>
7628,244,25059,7618,7641,5053,637511,7714,7762,25429,8842,7794,637566,7843,174,7870,86102,7888,7896,1140,8042,8058,8078,8087,8117,8133,115224,8175,8194,445639,4944,8294,93541,8360,8363,656612,125098,3
352,3303913,64805,31200,1712058,31236,31239,31265,31266,31276,6950273,518659,14896,14798,14829,14830,8635,23266,4284,8693,22311,8759,8785,2723810,8857,3893,9936739,516892,5430,9017,15433,107720,955208
1,164825,10275455,16666,9839306,5282227,23676745,32881,91581,39800,33344,15962220,33528,5365075,62829,162381,517202,6433353,2730,5372405,36081,3120,3017,2969,18827,19518,19658,38283,2758,10112,10340,7
12,5794,3347,104150,2912,2450,40326,40585,517055,10913,108242,62097,41679,54680676,62118,753,1030,23673837,54678504,11442,11463,22230,440917,6054,43234,22629,3039,2735067,6144,702,284,176,91688,22947,
47445,1711973,243,10342051,5281875,3776,6224,104926,8755,338,123622,23954,6334,2537,24261,23665760,83975,784,24437,5360315,311,6549,107689,17100,24976875,6654,71245,6442842,62334,54698175,6328154,2476
2,440950,7017,5281873,323,5281167,7175,7292,6335613,7456,7462

$$$$
10,913
  SciTegic10191915303D

 50 50  0  0  0  0            999 V2000
    1.5740    2.9390    0.9910 C   0  0
    0.9480    2.0800   -0.5580 Si  0  0
    1.7990    2.6730   -2.1230 C   0  0
   -0.6670    2.3460   -0.7170 O   0  0
   -2.0420    2.1470    0.1690 Si  0  0
   -3.4150    3.1150   -0.6800 C   0  0
   -1.7200    2.7550    1.9210 C   0  0
   -2.5190    0.5720    0.2380 O   0  0
   -1.9410   -0.8800    0.7460 Si  0  0
   -3.3930   -1.9950    1.1610 C   0  0
   -0.7960   -0.6010    2.2150 C   0  0
   -1.1110   -1.5620   -0.4950 O   0  0
    0.0380   -2.7360   -0.5480 Si  0  0
    0.3220   -3.2180   -2.3430 C   0  0
   -0.5110   -4.1820    0.5180 C   0  0
    1.4340   -2.1140    0.0670 O   0  0
    2.2420   -0.7700   -0.4310 Si  0  0
    2.8330   -1.0270   -2.1960 C   0  0
    3.6300   -0.4150    0.7800 C   0  0
    1.1650    0.4670   -0.4050 O   0  0
    1.2410    2.4820    1.9220 H   0  0
    1.2410    3.9770    0.9910 H   0  0
    2.6640    2.9390    0.9910 H   0  0
    1.4490    2.1890   -3.0350 H   0  0
    2.8710    2.4960   -2.0430 H   0  0
    1.6450    3.7460   -2.2360 H   0  0
   -3.6300    2.7890   -1.6980 H   0  0
   -3.1460    4.1710   -0.7190 H   0  0
   -4.3340    3.0270   -0.1010 H   0  0
   -0.9750    2.1760    2.4670 H   0  0
   -2.6480    2.7270    2.4920 H   0  0
   -1.3800    3.7900    1.8890 H   0  0
   -4.0650   -2.1860    0.3230 H   0  0
   -3.9790   -1.5460    1.9620 H   0  0
   -3.0230   -2.9560    1.5170 H   0  0
    0.0250    0.0880    2.0180 H   0  0
   -0.3660   -1.5530    2.5260 H   0  0
   -1.3700   -0.2050    3.0520 H   0  0
    0.3410   -2.3770   -3.0360 H   0  0
   -0.4670   -3.8980   -2.6660 H   0  0
    1.2720   -3.7450   -2.4320 H   0  0
   -0.6230   -3.9420    1.5750 H   0  0
    0.2150   -4.9910    0.4340 H   0  0
   -1.4690   -4.5550    0.1570 H   0  0
    2.0490   -0.9430   -2.9490 H   0  0
    3.2800   -2.0170   -2.2890 H   0  0
    3.6020   -0.2920   -2.4320 H   0  0
    3.2110   -0.2450    1.7720 H   0  0
    4.3480   -1.2340    0.7600 H   0  0
    4.1510    0.4930    0.4780 H   0  0
  1  2  1  0
  2  3  1  0
  2  4  1  0
  2 20  1  0
  4  5  1  0
  5  6  1  0
  5  7  1  0
  5  8  1  0
  8  9  1  0
  9 10  1  0
  9 11  1  0
  9 12  1  0
 12 13  1  0
 13 14  1  0
 13 15  1  0
 13 16  1  0
 16 17  1  0
 17 18  1  0
 17 19  1  0
 17 20  1  0
  1 21  1  0
  1 22  1  0
  1 23  1  0
  3 24  1  0
  3 25  1  0
  3 26  1  0
  6 27  1  0
  6 28  1  0
  6 29  1  0
  7 30  1  0
  7 31  1  0
  7 32  1  0
 10 33  1  0
 10 34  1  0
 10 35  1  0
 11 36  1  0
 11 37  1  0
 11 38  1  0
 14 39  1  0
 14 40  1  0
 14 41  1  0
 15 42  1  0
 15 43  1  0
 15 44  1  0
 18 45  1  0
 18 46  1  0
 18 47  1  0
 19 48  1  0
 19 49  1  0
 19 50  1  0
M  END
> <Name>
10,913

> <OBJECTID>
9223372466354847755

> <ActiveAidCount>
0

> <AtomChiralCount>
0

> <AtomChiralDefCount>
0

> <AtomChiralUndefCount>
0

> <BondChiralCount>
0

> <BondChiralDefCount>
0

> <BondChiralUndefCount>
0

> <CID>
10913

> <CanonicalSmiles>
C[Si]1(O[Si](O[Si](O[Si](O[Si](O1)(C)C)(C)C)(C)C)(C)C)C

> <Complexity>
258

> <CovalentUnitCount>
1

> <CreateDate>
2005/03/27 00:00

> <HeavyAtomCount>
20

> <HydrogenBondAcceptorCount>
5

> <HydrogenBondDonorCount>
0

> <IUPACName>
2,2,4,4,6,6,8,8,10,10-decamethyl-1,3,5,7,9,2,4,6,8,10-pentaoxapentasilecane

> <InChI>
InChI=1S/C10H30O5Si5/c1-16(2)11-17(3,4)13-19(7,8)15-20(9,10)14-18(5,6)12-16/h1-10H3

> <InChIKey>
XMSXQFUHVRWGNA-UHFFFAOYSA-N

> <IsomericSmiles>
C[Si]1(O[Si](O[Si](O[Si](O[Si](O1)(C)C)(C)C)(C)C)(C)C)C

> <IsotopeAtomCount>
0

> <MeSHHeading>
decamethylcyclopentasiloxane

> <MeSHTerm>
D5-sil
decamethylcyclopentasiloxane

> <MolecularFormula>
C10H30O5Si5

> <MolecularWeight>
370.77

> <RotatableBondCount>
0

> <Smiles>
C[Si]1(O[Si](C)(C)O[Si](C)(C)O[Si](C)(C)O[Si](C)(C)O1)C

> <SourceCategory>
Chemical Vendors
Legacy Depositors
Curation Efforts
Governmental Organizations
Subscription Services
Journal Publishers
Research and Development
NIH Initiatives

> <Synonym>
DECAMETHYLCYCLOPENTASILOXANE
541-02-6
Cyclopentasiloxane, decamethyl-
Dimethylsiloxane pentamer
Dow corning 345 fluid
NUC silicone VS 7158
Dow corning 345
CYCLOMETHICONE
Silicon SF 1202
Cyclic dimethylsiloxane pentamer
Dekamethylcyklopentasiloxan
UNII-0THT5PCI0R
Union carbide 7158 silicone fluid
KF 995
VS 7158
2,2,4,4,6,6,8,8,10,10-Decamethyl-1,3,5,7,9,2,4,6,8,10-pentaoxapentasilecane
CCRIS 1328
HSDB 5683
Dekamethylcyklopentasiloxan [Czech]
EINECS 208-764-9
0THT5PCI0R
Ddecamethylcyclopentasiloxane
SF 1202
BRN 1800166
Decamethylcyclopentasiloxane, 97%
MFCD00046966
Cyclomethicone 5
Cyclopentasiloxane, 2,2,4,4,6,6,8,8,10,10-decamethyl-
Cyclopentamethicone
Pentacyclomethicone
Silicon Plus |A
Silbione V 5
Botanisil CP 33
D5 Cyclic pentamer
Mirasil CM 5
Execol D 5
Volasil 245
Dow Corning 345EU
Silicone SF 1202
DC 345 Fluid
dimethylcyclopentasiloxane
Silbione 70045V5
Xiameter PMX 0245
Cyclopentadimethylsiloxane
Decamethylcylopentasiloxane
Dow Corning 245 Fluid
DSSTox_CID_7184
ACMC-209ld1
Dow Corning 2-5252C
EC 208-764-9
AC1L1W7T
Cyclo-decamethylpentasiloxane
DSSTox_RID_78338
Cyclomethicone Pentamer 245
DSSTox_GSID_27184
SCHEMBL28497
4-04-00-04128 (Beilstein Handbook Reference)
KSC493E2H
Volatile Silicone Fluid 345
2,2,4,4,6,6,8,8,10,10-Decamethylcyclopentasiloxane
CHEMBL1885178
DTXSID1027184
CTK3J3223
TFS 405
TSF 405
TSF 465
XMSXQFUHVRWGNA-UHFFFAOYSA-N
BCP15826
Tox21_303170
ANW-31955
CD3770
DC 245
SH 245
AKOS008901199
ZINC169743678
DB11244
DC 2-5252C
LS 9000
MCULE-6274880347
RTR-019129
TRA0086699
KS-00000X48
NCGC00163981-01
NCGC00257224-01
AK608817
AN-45748
CAS-541-02-6
D5
LS-58254
SC-81690
TR-019129
D1890
D3770
Decamethylcyclopentasiloxane (cyclic monomer)
FT-0665531
S05475
Decamethylcyclopentasiloxane, analytical standard
C-52846
I14-53249
UNII-NMQ347994Z component XMSXQFUHVRWGNA-UHFFFAOYSA-N
Cyclomethicone 5, United States Pharmacopeia (USP) Reference Standard
2,2,4,4,6,6,8,8,10,10-Decamethyl-1,3,5,7,9,2,4,6,8,10-pentaoxapentasilecane #
2,2,4,4,6,6,8,8,10,10-decamethyl-1,3,5,7,9,2,4,6,8,10-pentoxapentasilecane
D5 Cyclomethicone, Pharmaceutical Secondary Standard; Certified Reference Material

> <TPSA>
46.2

> <TotalAidCount>
243

> <TotalFormalCharge>
0

> <database>
PubChem Compound

> <matchingCount>
176

> <primaryID>
10913

> <queryTranslation>
7628[CompoundID] OR 244[CompoundID] OR 25059[CompoundID] OR 7618[CompoundID] OR 7641[CompoundID] OR 5053[CompoundID] OR 637511[CompoundID] OR 7714[CompoundID] OR 7762[CompoundID] OR 25429[CompoundID]
OR 8842[CompoundID] OR 7794[CompoundID] OR 637566[CompoundID] OR 7843[CompoundID] OR 174[CompoundID] OR 7870[CompoundID] OR 86102[CompoundID] OR 7888[CompoundID] OR 7896[CompoundID] OR 1140[CompoundID
] OR 8042[CompoundID] OR 8058[CompoundID] OR 8078[CompoundID] OR 8087[CompoundID] OR 8117[CompoundID] OR 8133[CompoundID] OR 115224[CompoundID] OR 8175[CompoundID] OR 8194[CompoundID] OR 445639[Compou
ndID] OR 4944[CompoundID] OR 8294[CompoundID] OR 93541[CompoundID] OR 8360[CompoundID] OR 8363[CompoundID] OR 656612[CompoundID] OR 125098[CompoundID] OR 3352[CompoundID] OR 3303913[CompoundID] OR 648
05[CompoundID] OR 31200[CompoundID] OR 1712058[CompoundID] OR 31236[CompoundID] OR 31239[CompoundID] OR 31265[CompoundID] OR 31266[CompoundID] OR 31276[CompoundID] OR 6950273[CompoundID] OR 518659[Com
poundID] OR 14896[CompoundID] OR 14798[CompoundID] OR 14829[CompoundID] OR 14830[CompoundID] OR 8635[CompoundID] OR 23266[CompoundID] OR 4284[CompoundID] OR 8693[CompoundID] OR 22311[CompoundID] OR 87
59[CompoundID] OR 8785[CompoundID] OR 2723810[CompoundID] OR 8857[CompoundID] OR 3893[CompoundID] OR 9936739[CompoundID] OR 516892[CompoundID] OR 5430[CompoundID] OR 9017[CompoundID] OR 15433[Compound
ID] OR 107720[CompoundID] OR 9552081[CompoundID] OR 164825[CompoundID] OR 10275455[CompoundID] OR 16666[CompoundID] OR 9839306[CompoundID] OR 5282227[CompoundID] OR 23676745[CompoundID] OR 32881[Compo
undID] OR 91581[CompoundID] OR 39800[CompoundID] OR 33344[CompoundID] OR 15962220[CompoundID] OR 33528[CompoundID] OR 5365075[CompoundID] OR 62829[CompoundID] OR 162381[CompoundID] OR 517202[CompoundI
D] OR 6433353[CompoundID] OR 2730[CompoundID] OR 5372405[CompoundID] OR 36081[CompoundID] OR 3120[CompoundID] OR 3017[CompoundID] OR 2969[CompoundID] OR 18827[CompoundID] OR 19518[CompoundID] OR 19658
[CompoundID] OR 38283[CompoundID] OR 2758[CompoundID] OR 10112[CompoundID] OR 10340[CompoundID] OR 712[CompoundID] OR 5794[CompoundID] OR 3347[CompoundID] OR 104150[CompoundID] OR 2912[CompoundID] OR
2450[CompoundID] OR 40326[CompoundID] OR 40585[CompoundID] OR 517055[CompoundID] OR 10913[CompoundID] OR 108242[CompoundID] OR 62097[CompoundID] OR 41679[CompoundID] OR 54680676[CompoundID] OR 62118[C
ompoundID] OR 753[CompoundID] OR 1030[CompoundID] OR 23673837[CompoundID] OR 54678504[CompoundID] OR 11442[CompoundID] OR 11463[CompoundID] OR 22230[CompoundID] OR 440917[CompoundID] OR 6054[CompoundI
D] OR 43234[CompoundID] OR 22629[CompoundID] OR 3039[CompoundID] OR 2735067[CompoundID] OR 6144[CompoundID] OR 702[CompoundID] OR 284[CompoundID] OR 176[CompoundID] OR 91688[CompoundID] OR 22947[Compo
undID] OR 47445[CompoundID] OR 1711973[CompoundID] OR 243[CompoundID] OR 10342051[CompoundID] OR 5281875[CompoundID] OR 3776[CompoundID] OR 6224[CompoundID] OR 104926[CompoundID] OR 8755[CompoundID] O
R 338[CompoundID] OR 123622[CompoundID] OR 23954[CompoundID] OR 6334[CompoundID] OR 2537[CompoundID] OR 24261[CompoundID] OR 23665760[CompoundID] OR 83975[CompoundID] OR 784[CompoundID] OR 24437[Compo
undID] OR 5360315[CompoundID] OR 311[CompoundID] OR 6549[CompoundID] OR 107689[CompoundID] OR 17100[CompoundID] OR 24976875[CompoundID] OR 6654[CompoundID] OR 71245[CompoundID] OR 6442842[CompoundID]
OR 62334[CompoundID] OR 54698175[CompoundID] OR 6328154[CompoundID] OR 24762[CompoundID] OR 440950[CompoundID] OR 7017[CompoundID] OR 5281873[CompoundID] OR 323[CompoundID] OR 5281167[CompoundID] OR 7
175[CompoundID] OR 7292[CompoundID] OR 6335613[CompoundID] OR 7456[CompoundID] OR 7462[CompoundID]

> <resultIndex>
102

> <resultRange>
1-176

> <textQuery>
7628,244,25059,7618,7641,5053,637511,7714,7762,25429,8842,7794,637566,7843,174,7870,86102,7888,7896,1140,8042,8058,8078,8087,8117,8133,115224,8175,8194,445639,4944,8294,93541,8360,8363,656612,125098,3
352,3303913,64805,31200,1712058,31236,31239,31265,31266,31276,6950273,518659,14896,14798,14829,14830,8635,23266,4284,8693,22311,8759,8785,2723810,8857,3893,9936739,516892,5430,9017,15433,107720,955208
1,164825,10275455,16666,9839306,5282227,23676745,32881,91581,39800,33344,15962220,33528,5365075,62829,162381,517202,6433353,2730,5372405,36081,3120,3017,2969,18827,19518,19658,38283,2758,10112,10340,7
12,5794,3347,104150,2912,2450,40326,40585,517055,10913,108242,62097,41679,54680676,62118,753,1030,23673837,54678504,11442,11463,22230,440917,6054,43234,22629,3039,2735067,6144,702,284,176,91688,22947,
47445,1711973,243,10342051,5281875,3776,6224,104926,8755,338,123622,23954,6334,2537,24261,23665760,83975,784,24437,5360315,311,6549,107689,17100,24976875,6654,71245,6442842,62334,54698175,6328154,2476
2,440950,7017,5281873,323,5281167,7175,7292,6335613,7456,7462

$$$$
10,340
  SciTegic10191915303D

  4  3  0  0  0  0            999 V2000
   -0.6370    1.0320    0.0000 O   0  5
   -0.6370   -1.0320    0.0000 O   0  5
    1.2420    0.0000    0.0000 O   0  0
    0.0330    0.0000    0.0000 C   0  0
  1  4  1  0
  2  4  1  0
  3  4  2  0
M  CHG  2   1  -1   2  -1
M  END
> <Name>
10,340

> <OBJECTID>
9223372470649815051

> <ActiveAidCount>
8

> <AtomChiralCount>
0

> <AtomChiralDefCount>
0

> <AtomChiralUndefCount>
0

> <BondChiralCount>
0

> <BondChiralDefCount>
0

> <BondChiralUndefCount>
0

> <CID>
10340

> <CanonicalSmiles>
C(=O)([O-])[O-].[Na+].[Na+]

> <Complexity>
18.8

> <CovalentUnitCount>
3

> <CreateDate>
2005/07/19 00:00

> <HeavyAtomCount>
6

> <HydrogenBondAcceptorCount>
3

> <HydrogenBondDonorCount>
0

> <IUPACName>
disodium;carbonate

> <InChI>
InChI=1S/CH2O3.2Na/c2-1(3)4;;/h(H2,2,3,4);;/q;2*+1/p-2

> <InChIKey>
CDBYLPFSWZWCQE-UHFFFAOYSA-L

> <IsomericSmiles>
C(=O)([O-])[O-].[Na+].[Na+]

> <IsotopeAtomCount>
0

> <MeSHHeading>
sodium carbonate

> <MeSHTerm>
sodium carbonate
disodium carbonate, monohydrate
sodium carbonate (4:5)
sodium carbonate (2:3), dihydrate
sodium carbonate decahydrate
monosodium carbonate, monohydrate
sodium carbonate, hydrate
disodium carbonate, heptahydrate
monosodium carbonate, 14C-labeled cpd
disodium carbonate, 14C-labeled cpd

> <MolecularFormula>
CNa2O3

> <MolecularWeight>
105.988

> <RotatableBondCount>
0

> <Smiles>
[Na+].[Na+].[O-]C(=O)[O-]

> <SourceCategory>
Legacy Depositors
Chemical Vendors
Research and Development
Curation Efforts
Governmental Organizations
Subscription Services
Journal Publishers

> <Synonym>
SODIUM CARBONATE
497-19-8
Disodium carbonate
Soda Ash
Carbonic acid disodium salt
Calcined soda
sodiumcarbonate
Sodium carbonate, anhydrous
Washing soda
Carbonic acid, disodium salt
Solvay soda
Soda, calcined
Snowlite I
Light Ash
V Soda
Carbonic acid sodium salt (1:2)
Trona
Soda Ash Light 4P
Suprapur 6395
Crystol carbonate
Caswell N0 752
Natriumkarbonat
Bisodium carbonate
Dynamar L 13890
Na2CO3
Sodium ash
Natrium Carbonicum Siccatum
Na-X
MFCD00003494
Natrium Carbonicum Calcinatum
Disodium carbonate (Na2CO3)
Soda
CCRIS 7319
Carbonic acid sodium salt
Sodium carbonate anhydrous
UNII-45P3261C7T
Sodium carbonate (2:1)
HSDB 5018
Sodium carbonate [NF]
V 20N
EINECS 207-838-8
EPA Pesticide Chemical Code 073506
NSC 156204
Sodium carbonate (Na2(CO3))
Sodium Carbonate, Anhydrous ASTM D458
SODIUM CARBONATE, ACS
Anhydrous soda
CHEBI:29377
Sodium Carbonate, Anhydrous GE Materials D4D5
45P3261C7T
Sodium carbonate (NF)
Celite(R) 545
Sodium carbonate, 99+%, for analysis, granular
Sodium carbonate, 99.5%, extra pure, anhydrous
Sodium carbonate, 99.95%, extra pure, anhydrous
Sodium carbonate, 99.999%, (trace metal basis)
Sodium carbonate, 99.8%, for analysis, anhydrous, powder
sodium cabonate
Sodium carbonat
Soda crystals
carbonate sodium
sodium-carbonate
Soda-ash
dipotassium CO3
Natrum carbonicum
Soda Ash dense
Soda Ash Light
Caswell No. 752
sodium carbonate sodium
sodium sodium carbonate
AC1LANIS
Sodium carbonate, dried
Sodium carbonate,high-p
Sodium Carbonate, dense
CNa2O3
disodium trioxidocarbonate
SCHEMBL25
AC1L1UZW
Anhydrous sodium carbonate
Sodium carbonate,anhydrous
ACMC-1AJK4
Carbonic acid, sodium salt
EC 207-838-8
Sodium carbonate (anhydrous)
Sodium salt of carbonic acid
KSC235O4D
inverted question mark(1/4)i
CHEMBL186314
Dried sodium carbonate (JP17)
DTXSID1029621
CTK1D5741
Anhydrous soda,99.999%,powder
CDBYLPFSWZWCQE-UHFFFAOYSA-L
Sodium carbonate, biochemical grade
KS-00000VZ2
EINECS 231-420-4
AKOS009158235
DB09460
RL03823
RTR-017858
TRA0000773
Sodium carbonate, anhydrous, ACS powder
AN-21409
SC-65099
Carbonate-buffered saline (5X), pH 9.0
Carbonate, 0.5M buffer solution, pH 9.4
Carbonate, 0.5M buffer solution, pH 9.5
Carbonate, 0.5M buffer solution, pH 9.6
DB-017706
LS-145527
Sodium carbonate, anhydrous, Puratronic(R)
TR-017858
Carbonate, 0.5M buffer solution, pH 10.0
FT-0645109
S0560
Y1280
D05283
Sodium carbonate, 0.05N Standardized Solution
Dicalite(R) speed plus, Diatomaceous filter-aid
Sodium carbonate, 99.6%, ACS reagent, anhydrous
Sodium carbonate 5% w/v solution in water (+/- 0.3%)
Sodium carbonate, anhydrous, granular Trace Metals Grade, 99.99%
Soda ash, (99% as sodium carbonate or 58% as sodium oxide), technical grade, light
Sodium carbonate concentrate, 0.1 M Na2CO3 in water, eluent concentrate for IC
Sodium carbonate, Acculute Standard Volumetric Solution, Final Concentration 0.1N
1332-57-6
7542-12-3
Sodium carbonate concentrate, Na2CO3 72 mM in water, IC eluent concentrate (20x) for Metrosep A Supp 7

> <TPSA>
63.2

> <TotalAidCount>
115

> <TotalFormalCharge>
0

> <database>
PubChem Compound

> <matchingCount>
176

> <primaryID>
10340

> <queryTranslation>
7628[CompoundID] OR 244[CompoundID] OR 25059[CompoundID] OR 7618[CompoundID] OR 7641[CompoundID] OR 5053[CompoundID] OR 637511[CompoundID] OR 7714[CompoundID] OR 7762[CompoundID] OR 25429[CompoundID]
OR 8842[CompoundID] OR 7794[CompoundID] OR 637566[CompoundID] OR 7843[CompoundID] OR 174[CompoundID] OR 7870[CompoundID] OR 86102[CompoundID] OR 7888[CompoundID] OR 7896[CompoundID] OR 1140[CompoundID
] OR 8042[CompoundID] OR 8058[CompoundID] OR 8078[CompoundID] OR 8087[CompoundID] OR 8117[CompoundID] OR 8133[CompoundID] OR 115224[CompoundID] OR 8175[CompoundID] OR 8194[CompoundID] OR 445639[Compou
ndID] OR 4944[CompoundID] OR 8294[CompoundID] OR 93541[CompoundID] OR 8360[CompoundID] OR 8363[CompoundID] OR 656612[CompoundID] OR 125098[CompoundID] OR 3352[CompoundID] OR 3303913[CompoundID] OR 648
05[CompoundID] OR 31200[CompoundID] OR 1712058[CompoundID] OR 31236[CompoundID] OR 31239[CompoundID] OR 31265[CompoundID] OR 31266[CompoundID] OR 31276[CompoundID] OR 6950273[CompoundID] OR 518659[Com
poundID] OR 14896[CompoundID] OR 14798[CompoundID] OR 14829[CompoundID] OR 14830[CompoundID] OR 8635[CompoundID] OR 23266[CompoundID] OR 4284[CompoundID] OR 8693[CompoundID] OR 22311[CompoundID] OR 87
59[CompoundID] OR 8785[CompoundID] OR 2723810[CompoundID] OR 8857[CompoundID] OR 3893[CompoundID] OR 9936739[CompoundID] OR 516892[CompoundID] OR 5430[CompoundID] OR 9017[CompoundID] OR 15433[Compound
ID] OR 107720[CompoundID] OR 9552081[CompoundID] OR 164825[CompoundID] OR 10275455[CompoundID] OR 16666[CompoundID] OR 9839306[CompoundID] OR 5282227[CompoundID] OR 23676745[CompoundID] OR 32881[Compo
undID] OR 91581[CompoundID] OR 39800[CompoundID] OR 33344[CompoundID] OR 15962220[CompoundID] OR 33528[CompoundID] OR 5365075[CompoundID] OR 62829[CompoundID] OR 162381[CompoundID] OR 517202[CompoundI
D] OR 6433353[CompoundID] OR 2730[CompoundID] OR 5372405[CompoundID] OR 36081[CompoundID] OR 3120[CompoundID] OR 3017[CompoundID] OR 2969[CompoundID] OR 18827[CompoundID] OR 19518[CompoundID] OR 19658
[CompoundID] OR 38283[CompoundID] OR 2758[CompoundID] OR 10112[CompoundID] OR 10340[CompoundID] OR 712[CompoundID] OR 5794[CompoundID] OR 3347[CompoundID] OR 104150[CompoundID] OR 2912[CompoundID] OR
2450[CompoundID] OR 40326[CompoundID] OR 40585[CompoundID] OR 517055[CompoundID] OR 10913[CompoundID] OR 108242[CompoundID] OR 62097[CompoundID] OR 41679[CompoundID] OR 54680676[CompoundID] OR 62118[C
ompoundID] OR 753[CompoundID] OR 1030[CompoundID] OR 23673837[CompoundID] OR 54678504[CompoundID] OR 11442[CompoundID] OR 11463[CompoundID] OR 22230[CompoundID] OR 440917[CompoundID] OR 6054[CompoundI
D] OR 43234[CompoundID] OR 22629[CompoundID] OR 3039[CompoundID] OR 2735067[CompoundID] OR 6144[CompoundID] OR 702[CompoundID] OR 284[CompoundID] OR 176[CompoundID] OR 91688[CompoundID] OR 22947[Compo
undID] OR 47445[CompoundID] OR 1711973[CompoundID] OR 243[CompoundID] OR 10342051[CompoundID] OR 5281875[CompoundID] OR 3776[CompoundID] OR 6224[CompoundID] OR 104926[CompoundID] OR 8755[CompoundID] O
R 338[CompoundID] OR 123622[CompoundID] OR 23954[CompoundID] OR 6334[CompoundID] OR 2537[CompoundID] OR 24261[CompoundID] OR 23665760[CompoundID] OR 83975[CompoundID] OR 784[CompoundID] OR 24437[Compo
undID] OR 5360315[CompoundID] OR 311[CompoundID] OR 6549[CompoundID] OR 107689[CompoundID] OR 17100[CompoundID] OR 24976875[CompoundID] OR 6654[CompoundID] OR 71245[CompoundID] OR 6442842[CompoundID]
OR 62334[CompoundID] OR 54698175[CompoundID] OR 6328154[CompoundID] OR 24762[CompoundID] OR 440950[CompoundID] OR 7017[CompoundID] OR 5281873[CompoundID] OR 323[CompoundID] OR 5281167[CompoundID] OR 7
175[CompoundID] OR 7292[CompoundID] OR 6335613[CompoundID] OR 7456[CompoundID] OR 7462[CompoundID]

> <resultIndex>
103

> <resultRange>
1-176

> <textQuery>
7628,244,25059,7618,7641,5053,637511,7714,7762,25429,8842,7794,637566,7843,174,7870,86102,7888,7896,1140,8042,8058,8078,8087,8117,8133,115224,8175,8194,445639,4944,8294,93541,8360,8363,656612,125098,3
352,3303913,64805,31200,1712058,31236,31239,31265,31266,31276,6950273,518659,14896,14798,14829,14830,8635,23266,4284,8693,22311,8759,8785,2723810,8857,3893,9936739,516892,5430,9017,15433,107720,955208
1,164825,10275455,16666,9839306,5282227,23676745,32881,91581,39800,33344,15962220,33528,5365075,62829,162381,517202,6433353,2730,5372405,36081,3120,3017,2969,18827,19518,19658,38283,2758,10112,10340,7
12,5794,3347,104150,2912,2450,40326,40585,517055,10913,108242,62097,41679,54680676,62118,753,1030,23673837,54678504,11442,11463,22230,440917,6054,43234,22629,3039,2735067,6144,702,284,176,91688,22947,
47445,1711973,243,10342051,5281875,3776,6224,104926,8755,338,123622,23954,6334,2537,24261,23665760,83975,784,24437,5360315,311,6549,107689,17100,24976875,6654,71245,6442842,62334,54698175,6328154,2476
2,440950,7017,5281873,323,5281167,7175,7292,6335613,7456,7462

$$$$
9,017
  SciTegic10191915303D

 36 35  0  0  1  0            999 V2000
    2.7360    3.8970    3.1780 C   0  0
    2.2250    3.1950    1.9470 C   0  0
    3.0900    3.2890    0.7210 C   0  0
    1.0740    2.5080    1.8710 C   0  0
    0.7580    1.7810    0.5920 C   0  0
   -0.2930    0.6880    0.7870 C   0  0
   -0.5350   -0.1330   -0.4810 C   0  0  3  0  0  0
   -1.1480    0.6950   -1.6110 C   0  0
   -1.3070   -1.4260   -0.2110 C   0  0
   -1.2810   -2.3870   -1.3990 C   0  0
   -1.9320   -3.5980   -1.0410 O   0  0
   -1.9430   -4.4790   -2.0370 C   0  0
   -2.6190   -5.7870   -1.7270 C   0  0
   -1.4530   -4.2750   -3.1230 O   0  0
    2.4040    3.4400    4.1090 H   0  0
    2.4040    4.9360    3.1780 H   0  0
    3.8260    3.8970    3.1780 H   0  0
    2.5250    3.4220   -0.2010 H   0  0
    3.6860    2.3810    0.6170 H   0  0
    3.7770    4.1290    0.8140 H   0  0
    0.4590    2.5350    2.7580 H   0  0
    0.3360    2.4750   -0.1350 H   0  0
    1.6700    1.3650    0.1640 H   0  0
   -0.0230    0.0370    1.6190 H   0  0
   -1.2270    1.1110    1.1540 H   0  0
    0.4060   -0.3460   -0.9880 H   0  0
   -1.2440    0.0980   -2.5180 H   0  0
   -2.1330    1.0660   -1.3240 H   0  0
   -0.5210    1.5570   -1.8420 H   0  0
   -2.3320   -1.2070    0.0860 H   0  0
   -0.9340   -1.9140    0.6890 H   0  0
   -0.2540   -2.6230   -1.6820 H   0  0
   -1.8030   -1.9590   -2.2540 H   0  0
   -2.6130   -6.4900   -2.5590 H   0  0
   -3.6580   -5.6090   -1.4470 H   0  0
   -2.1250   -6.2680   -0.8810 H   0  0
  1  2  1  0
  2  3  1  0
  2  4  2  0
  4  5  1  0
  5  6  1  0
  6  7  1  0
  7  8  1  0
  7  9  1  0
  9 10  1  0
 10 11  1  0
 11 12  1  0
 12 13  1  0
 12 14  2  0
  1 15  1  0
  1 16  1  0
  1 17  1  0
  3 18  1  0
  3 19  1  0
  3 20  1  0
  4 21  1  0
  5 22  1  0
  5 23  1  0
  6 24  1  0
  6 25  1  0
  7 26  1  0
  8 27  1  0
  8 28  1  0
  8 29  1  0
  9 30  1  0
  9 31  1  0
 10 32  1  0
 10 33  1  0
 13 34  1  0
 13 35  1  0
 13 36  1  0
M  END
> <Name>
9,017

> <OBJECTID>
9223372474944782347

> <ActiveAidCount>
2

> <AtomChiralCount>
1

> <AtomChiralDefCount>
0

> <AtomChiralUndefCount>
1

> <BondChiralCount>
0

> <BondChiralDefCount>
0

> <BondChiralUndefCount>
0

> <CID>
9017

> <CanonicalSmiles>
CC(CCC=C(C)C)CCOC(=O)C

> <Complexity>
191

> <CovalentUnitCount>
1

> <CreateDate>
2005/03/26 00:00

> <HeavyAtomCount>
14

> <HydrogenBondAcceptorCount>
2

> <HydrogenBondDonorCount>
0

> <IUPACName>
3,7-dimethyloct-6-enyl acetate

> <InChI>
InChI=1S/C12H22O2/c1-10(2)6-5-7-11(3)8-9-14-12(4)13/h6,11H,5,7-9H2,1-4H3

> <InChIKey>
JOZKFWLRHCDGJA-UHFFFAOYSA-N

> <IsomericSmiles>
CC(CCC=C(C)C)CCOC(=O)C

> <IsotopeAtomCount>
0

> <MeSHHeading>
citronellyl acetate

> <MeSHTerm>
citronellyl acetate, (S)-isomer
citronellyl acetate

> <MolecularFormula>
C12H22O2

> <MolecularWeight>
198.3

> <RotatableBondCount>
7

> <Smiles>
C\C(=C\CCC(CCOC(=O)C)C)\C

> <SourceCategory>
Chemical Vendors
Legacy Depositors
Research and Development
Curation Efforts
Governmental Organizations
Subscription Services
Journal Publishers
NIH Initiatives

> <Synonym>
Citronellyl acetate
150-84-5
Citronellol acetate
3,7-Dimethyloct-6-en-1-yl acetate
3,7-Dimethyl-6-octen-1-yl acetate
1-Acetoxy-3,7-dimethyloct-6-ene
Acetic acid, citronellyl ester
Natural rhodinol, acetylated
Citronellyl ethanoate
b-citronellyl acetate
6-Octen-1-ol, 3,7-dimethyl-, acetate
3,7-Dimethyl-6-octen-1-ol acetate
3,7-dimethyloct-6-enyl acetate
2-Octen-8-ol, 2,6-dimethyl-, acetate
NSC 4893
Ctronellyl acetate (natural)
Acetic acid, 3,7-dimethyl-6-octen-1-yl ester
3,7-Dimethyl-6-octen-1-yl ethanoate
FEMA No. 2311
FEMA No. 2981
CHEBI:70478
6-Octen-1-ol, 3,7-dimethyl-, 1-acetate
beta-citronellol acetate
beta-Citronellyl acetate
EINECS 205-775-0
EINECS 266-837-0
MFCD00015039
.beta.-Citronellyl acetate
BRN 1723886
6-Octen-l-ol, 3,7-dimethyl-, acetate
AI3-02039
JOZKFWLRHCDGJA-UHFFFAOYSA-N
(1)-3,7-Dimethyloct-6-enyl acetate
Q-200868
6-Octen-1-ol, 3,7-dimethyl-, acetate, (3S)-
6-Octen-1-ol, 3,7-dimethyl-, 1-acetate, (3S)-
Cephreine
Cephrol acetate
Citronellyl Extra
CitronellyI acetate
67601-05-2
DL-Citronellol acetate
Acetic acid citronellyl
ACMC-1B6AI
EC 205-775-0
AC1L1S4Y
(+/-)-Citronellyl acetate
.beta.-Citronellol, acetate
1-02-00-00065 (Beilstein Handbook Reference)
KSC204E3B
SCHEMBL157075
AC1Q66K6
Jsp002879
CHEMBL1453648
DTXSID5051739
3,7-Dimethyl-6-octenyl acetate
CTK1A4230
FEMA 2311
NSC4893
WLN: 1Y1&U3Y1&WOV1
CITRONELLYL ACETATE BRI FCC
3,7-dimethyl-6-octen-1yl acetate
KS-00000ZD9
NSC-4893
7556AA
ANW-21300
BDBM50037054
2-Octen-8-ol,6-dimethyl-, acetate
6-Octen-1-ol,7-dimethyl-, acetate
AKOS015899521
LMPR0102010015
LS-2636
MCULE-2538735041
RTR-006170
Citronellyl acetate, analytical standard
Citronellyl acetate, >=95%, FCC, FG
NCGC00095623-01
AK114232
AN-23316
acetic acid 3,7-dimethyl-6-octenyl ester
Acetic acid,7-dimethyl-6-octen-1-yl ester
TR-006170
FT-0623967
ST24028242
C12298
C-58177
I14-1181
3,7-Dimethyl-6-octen-1-yl acetate;Citronellyl acetate
Citronellyl acetate, mixture of isomers, natural, >=95%, FG
67650-82-2

> <TPSA>
26.3

> <TotalAidCount>
87

> <TotalFormalCharge>
0

> <XLogP>
3.8

> <database>
PubChem Compound

> <matchingCount>
176

> <primaryID>
9017

> <queryTranslation>
7628[CompoundID] OR 244[CompoundID] OR 25059[CompoundID] OR 7618[CompoundID] OR 7641[CompoundID] OR 5053[CompoundID] OR 637511[CompoundID] OR 7714[CompoundID] OR 7762[CompoundID] OR 25429[CompoundID]
OR 8842[CompoundID] OR 7794[CompoundID] OR 637566[CompoundID] OR 7843[CompoundID] OR 174[CompoundID] OR 7870[CompoundID] OR 86102[CompoundID] OR 7888[CompoundID] OR 7896[CompoundID] OR 1140[CompoundID
] OR 8042[CompoundID] OR 8058[CompoundID] OR 8078[CompoundID] OR 8087[CompoundID] OR 8117[CompoundID] OR 8133[CompoundID] OR 115224[CompoundID] OR 8175[CompoundID] OR 8194[CompoundID] OR 445639[Compou
ndID] OR 4944[CompoundID] OR 8294[CompoundID] OR 93541[CompoundID] OR 8360[CompoundID] OR 8363[CompoundID] OR 656612[CompoundID] OR 125098[CompoundID] OR 3352[CompoundID] OR 3303913[CompoundID] OR 648
05[CompoundID] OR 31200[CompoundID] OR 1712058[CompoundID] OR 31236[CompoundID] OR 31239[CompoundID] OR 31265[CompoundID] OR 31266[CompoundID] OR 31276[CompoundID] OR 6950273[CompoundID] OR 518659[Com
poundID] OR 14896[CompoundID] OR 14798[CompoundID] OR 14829[CompoundID] OR 14830[CompoundID] OR 8635[CompoundID] OR 23266[CompoundID] OR 4284[CompoundID] OR 8693[CompoundID] OR 22311[CompoundID] OR 87
59[CompoundID] OR 8785[CompoundID] OR 2723810[CompoundID] OR 8857[CompoundID] OR 3893[CompoundID] OR 9936739[CompoundID] OR 516892[CompoundID] OR 5430[CompoundID] OR 9017[CompoundID] OR 15433[Compound
ID] OR 107720[CompoundID] OR 9552081[CompoundID] OR 164825[CompoundID] OR 10275455[CompoundID] OR 16666[CompoundID] OR 9839306[CompoundID] OR 5282227[CompoundID] OR 23676745[CompoundID] OR 32881[Compo
undID] OR 91581[CompoundID] OR 39800[CompoundID] OR 33344[CompoundID] OR 15962220[CompoundID] OR 33528[CompoundID] OR 5365075[CompoundID] OR 62829[CompoundID] OR 162381[CompoundID] OR 517202[CompoundI
D] OR 6433353[CompoundID] OR 2730[CompoundID] OR 5372405[CompoundID] OR 36081[CompoundID] OR 3120[CompoundID] OR 3017[CompoundID] OR 2969[CompoundID] OR 18827[CompoundID] OR 19518[CompoundID] OR 19658
[CompoundID] OR 38283[CompoundID] OR 2758[CompoundID] OR 10112[CompoundID] OR 10340[CompoundID] OR 712[CompoundID] OR 5794[CompoundID] OR 3347[CompoundID] OR 104150[CompoundID] OR 2912[CompoundID] OR
2450[CompoundID] OR 40326[CompoundID] OR 40585[CompoundID] OR 517055[CompoundID] OR 10913[CompoundID] OR 108242[CompoundID] OR 62097[CompoundID] OR 41679[CompoundID] OR 54680676[CompoundID] OR 62118[C
ompoundID] OR 753[CompoundID] OR 1030[CompoundID] OR 23673837[CompoundID] OR 54678504[CompoundID] OR 11442[CompoundID] OR 11463[CompoundID] OR 22230[CompoundID] OR 440917[CompoundID] OR 6054[CompoundI
D] OR 43234[CompoundID] OR 22629[CompoundID] OR 3039[CompoundID] OR 2735067[CompoundID] OR 6144[CompoundID] OR 702[CompoundID] OR 284[CompoundID] OR 176[CompoundID] OR 91688[CompoundID] OR 22947[Compo
undID] OR 47445[CompoundID] OR 1711973[CompoundID] OR 243[CompoundID] OR 10342051[CompoundID] OR 5281875[CompoundID] OR 3776[CompoundID] OR 6224[CompoundID] OR 104926[CompoundID] OR 8755[CompoundID] O
R 338[CompoundID] OR 123622[CompoundID] OR 23954[CompoundID] OR 6334[CompoundID] OR 2537[CompoundID] OR 24261[CompoundID] OR 23665760[CompoundID] OR 83975[CompoundID] OR 784[CompoundID] OR 24437[Compo
undID] OR 5360315[CompoundID] OR 311[CompoundID] OR 6549[CompoundID] OR 107689[CompoundID] OR 17100[CompoundID] OR 24976875[CompoundID] OR 6654[CompoundID] OR 71245[CompoundID] OR 6442842[CompoundID]
OR 62334[CompoundID] OR 54698175[CompoundID] OR 6328154[CompoundID] OR 24762[CompoundID] OR 440950[CompoundID] OR 7017[CompoundID] OR 5281873[CompoundID] OR 323[CompoundID] OR 5281167[CompoundID] OR 7
175[CompoundID] OR 7292[CompoundID] OR 6335613[CompoundID] OR 7456[CompoundID] OR 7462[CompoundID]

> <resultIndex>
105

> <resultRange>
1-176

> <textQuery>
7628,244,25059,7618,7641,5053,637511,7714,7762,25429,8842,7794,637566,7843,174,7870,86102,7888,7896,1140,8042,8058,8078,8087,8117,8133,115224,8175,8194,445639,4944,8294,93541,8360,8363,656612,125098,3
352,3303913,64805,31200,1712058,31236,31239,31265,31266,31276,6950273,518659,14896,14798,14829,14830,8635,23266,4284,8693,22311,8759,8785,2723810,8857,3893,9936739,516892,5430,9017,15433,107720,955208
1,164825,10275455,16666,9839306,5282227,23676745,32881,91581,39800,33344,15962220,33528,5365075,62829,162381,517202,6433353,2730,5372405,36081,3120,3017,2969,18827,19518,19658,38283,2758,10112,10340,7
12,5794,3347,104150,2912,2450,40326,40585,517055,10913,108242,62097,41679,54680676,62118,753,1030,23673837,54678504,11442,11463,22230,440917,6054,43234,22629,3039,2735067,6144,702,284,176,91688,22947,
47445,1711973,243,10342051,5281875,3776,6224,104926,8755,338,123622,23954,6334,2537,24261,23665760,83975,784,24437,5360315,311,6549,107689,17100,24976875,6654,71245,6442842,62334,54698175,6328154,2476
2,440950,7017,5281873,323,5281167,7175,7292,6335613,7456,7462

$$$$
8,857
  SciTegic10191915303D

 14 13  0  0  0  0            999 V2000
    0.1540    0.2130   -2.3400 C   0  0
   -0.3300   -0.4510   -1.0490 C   0  0
    0.1850    0.2560    0.0680 O   0  0
   -0.2010   -0.2750    1.2250 C   0  0
    0.3080    0.4260    2.4550 C   0  0
   -0.9120   -1.2500    1.3140 O   0  0
   -0.2230   -0.3200   -3.2110 H   0  0
   -0.1760    1.2500   -2.3850 H   0  0
    1.2420    0.2070   -2.3910 H   0  0
    0.0190   -1.4820   -0.9920 H   0  0
   -1.4180   -0.4330   -0.9920 H   0  0
   -0.0240   -0.0310    3.3870 H   0  0
   -0.0240    1.4650    2.4550 H   0  0
    1.4000    0.4260    2.4550 H   0  0
  1  2  1  0
  2  3  1  0
  3  4  1  0
  4  5  1  0
  4  6  2  0
  1  7  1  0
  1  8  1  0
  1  9  1  0
  2 10  1  0
  2 11  1  0
  5 12  1  0
  5 13  1  0
  5 14  1  0
M  END
> <Name>
8,857

> <OBJECTID>
9223372479239749643

> <ActiveAidCount>
2

> <AtomChiralCount>
0

> <AtomChiralDefCount>
0

> <AtomChiralUndefCount>
0

> <BondChiralCount>
0

> <BondChiralDefCount>
0

> <BondChiralUndefCount>
0

> <CID>
8857

> <CanonicalSmiles>
CCOC(=O)C

> <Complexity>
49.5

> <CovalentUnitCount>
1

> <CreateDate>
2004/09/16 00:00

> <HeavyAtomCount>
6

> <HydrogenBondAcceptorCount>
2

> <HydrogenBondDonorCount>
0

> <IUPACName>
ethyl acetate

> <InChI>
InChI=1S/C4H8O2/c1-3-6-4(2)5/h3H2,1-2H3

> <InChIKey>
XEKOWRVHYACXOJ-UHFFFAOYSA-N

> <IsomericSmiles>
CCOC(=O)C

> <IsotopeAtomCount>
0

> <MeSHHeading>
ethyl acetate

> <MeSHTerm>
ethyl acetate

> <MolecularFormula>
C4H8O2

> <MolecularWeight>
88.11

> <RotatableBondCount>
2

> <Smiles>
CCOC(=O)C

> <SourceCategory>
Chemical Vendors
Legacy Depositors
Research and Development
Curation Efforts
Governmental Organizations
NIH Initiatives
Subscription Services
Journal Publishers

> <Synonym>
ETHYL ACETATE
141-78-6
Ethyl ethanoate
Acetic acid ethyl ester
Acetoxyethane
Acetic ether
Ethyl acetic ester
Vinegar naphtha
Acetic acid, ethyl ester
Acetidin
Acetic ester
Essigester
Ethylacetate
EtOAc
Aethylacetat
Ethylacetat
1-acetoxyethane
Ethyl ester
RCRA waste number U112
AcOEt
Ethylacetaat
Octan etylu
Etile (acetato di)
Essigester [German]
Ethylacetaat [Dutch]
Aethylacetat [German]
Caswell No. 429
Ethyle (acetate d')
MFCD00009171
Octan etylu [Polish]
Ethylazetat
ethyl-acetate
Ethyl acetate (natural)
CHEBI:27750
Ethylester kyseliny octove
acetic acid ethyl
Acetate d'ethyle [French]
Ethyl ester of acetic acid
Acetato de etilo [Spanish]
NSC 70930
Essigsaeureethylester
HSDB 83
UNII-76845O8NMZ
Etile (acetato di) [Italian]
FEMA No. 2414
CCRIS 6036
Ethyl acetate [NF]
Ethyle (acetate d') [French]
acetic acid ethylester
acetic-acid-ethylester
Ethylester kyseliny octove [Czech]
EINECS 205-500-4
UN1173
CH3COOC2H5
RCRA waste no. U112
EPA Pesticide Chemical Code 044003
CH3-CO-O-CH3
ethyl acetat
AI3-00404
XEKOWRVHYACXOJ-UHFFFAOYSA-N
76845O8NMZ
Ethyl acetate (NF)
NCGC00091766-01
E1504
DSSTox_CID_2001
Ethyl acetate, ACS reagent
DSSTox_RID_76453
DSSTox_GSID_22001
Ethyl acetate, 99+%, extra pure
Acetate d'ethyle
Acetato de etilo
Ethyl acetate, 99.5%, for analysis
Ethyl acetate, 99.5+%, for HPLC
Ethyl acetate, 99.6%, ACS reagent
Ethyl acetate, ACS reagent, >=99.5%
CAS-141-78-6
EEE
Ethyl acetate, 99.5+%, for spectroscopy
Ethyl acetate, for pesticide residue analysis
Ethyl acetate, 99.5%, for spectroscopy ACS
Ethyl acetate, 99.9%, Extra Dry, AcroSeal(R)
Ethyl acetate, 99.8%, for biochemistry, AcroSeal(R)
ethylaceate
ethylactate
ethylacteate
Etylacetate
acet-ethylester
ehtyl acetate
ethanol acetate
ethly acetate
ethyl acteate
ethyl_acetate
ehyl acetate
ethl acetate
ethy acetate
ethyl aceate
ethyl actate
etyl acetate
Acetyl ester
acet-eth-ester
Ethyl acetate, 99.9%, Extra Dry over Molecular Sieve, AcroSeal(R)
1-ethyl acetate
2~ethyl acetate
acetic ethyl ester
Etile(acetato di)
Nat.Ethyl Acetate
ethyl acetate ester
Et-OAc
Ethyle(acetate d')
Ethyl Acetate Natural
ethyl acetate solution
Ethyl Acetate, HPLC
CH3CO2Et
ACMC-1BTXP
Ethyl acetate HPLC grade
Ethyl acetate, for HPLC
Ethyl acetate, 99.9%
Ethyl acetate, ACS grade
ETHYL ACETATE, ACS
CH3CO2CH2CH3
Epitope ID:116868
EC 205-500-4
AC1L1RU4
AC1Q35EC
Ethyl acetate, HPLC Grade
CH3CO2C2H5
ETHYL ACETATE 100ML
Ethyl acetate, >=99.5%
KSC492C3D
WLN: 2OV1
CHEMBL14152
ACETIC ACID,ETHYL ESTER
Ethyl acetate, AR, >=99%
Ethyl acetate, LR, >=99%
Ethylacetate, pure, Ph. Eur.
DTXSID1022001
CTK3J2131
Ethyl Acetate Reagent Grade ACS
KS-00000URG
2-Oxo-2-ethoxyethylidyne radical
Ethyl acetate, analytical standard
Ethyl acetate, Environmental Grade
ZINC895412
Ethyl acetate, anhydrous, 99.8%
NSC70930
Tox21_111166
Tox21_202512
ANW-42221
BDBM50128823
c0036
LS-831
NSC-70930
STL282717
Ethyl acetate, >=99%, FCC, FG
Ethyl acetate, HPLC grade, 99.8%
AKOS000121947
Ethyl Acetate Ethanol Solution (3:1)
Ethyl acetate GC, for residue analysis
Ethyl acetate, Spectrophotometric Grade
MCULE-6628539781
RL01740
RTR-005372
UN 1173
Ethyl acetate, for HPLC, >=99.5%
Ethyl acetate, for HPLC, >=99.7%
Ethyl acetate, for HPLC, >=99.8%
Ethyl acetate, PRA grade, >=99.5%
NCGC00260061-01
AN-23212
SC-22781
ZB015033
Ethyl acetate, biotech. grade, >=99.8%
Ethyl acetate, ReagentPlus(R), >=99.5%
Ethyl acetate, ReagentPlus(R), >=99.8%
Ethyl acetate, tested according to Ph.Eur.
TR-005372
936-EP0930075A1
936-EP1441224A2
936-EP2269610A2
936-EP2269651A2
936-EP2269975A2
936-EP2269977A2
936-EP2269986A1
936-EP2269987A1
936-EP2269988A2
936-EP2269989A1
936-EP2269990A1
936-EP2269992A1
936-EP2269993A1
936-EP2269994A1
936-EP2269997A2
936-EP2270000A1
936-EP2270003A1
936-EP2270004A1
936-EP2270006A1
936-EP2270008A1
936-EP2270009A1
936-EP2270011A1
936-EP2270014A1
936-EP2270015A1
936-EP2270113A1
936-EP2270114A1
936-EP2272509A1
936-EP2272516A2
936-EP2272517A1
936-EP2272537A2
936-EP2272813A2
936-EP2272817A1
936-EP2272822A1
936-EP2272825A2
936-EP2272827A1
936-EP2272829A2
936-EP2272830A1
936-EP2272832A1
936-EP2272834A1
936-EP2272835A1
936-EP2272839A1
936-EP2272840A1
936-EP2272841A1
936-EP2272842A1
936-EP2272843A1
936-EP2272844A1
936-EP2272847A1
936-EP2272848A1
936-EP2272849A1
936-EP2272935A1
936-EP2272972A1
936-EP2272973A1
936-EP2274983A1
936-EP2275102A1
936-EP2275105A1
936-EP2275395A2
936-EP2275398A1
936-EP2275401A1
936-EP2275403A1
936-EP2275404A1
936-EP2275407A1
936-EP2275410A1
936-EP2275411A2
936-EP2275412A1
936-EP2275413A1
936-EP2275414A1
936-EP2275415A2
936-EP2275419A2
936-EP2275420A1
936-EP2275421A1
936-EP2275423A1
936-EP2275469A1
936-EP2277565A2
936-EP2277566A2
936-EP2277567A1
936-EP2277568A2
936-EP2277569A2
936-EP2277570A2
936-EP2277858A1
936-EP2277861A1
936-EP2277865A1
936-EP2277866A1
936-EP2277867A2
936-EP2277872A1
936-EP2277874A1
936-EP2277875A2
936-EP2277876A1
936-EP2277878A1
936-EP2277879A1
936-EP2277880A1
936-EP2277881A1
936-EP2277898A2
936-EP2279741A2
936-EP2279750A1
936-EP2279751A2
936-EP2280000A1
936-EP2280001A1
936-EP2280003A2
936-EP2280005A1
936-EP2280006A1
936-EP2280007A1
936-EP2280008A2
936-EP2280009A1
936-EP2280010A2
936-EP2280012A2
936-EP2280014A2
936-EP2281563A1
936-EP2281810A1
936-EP2281812A1
936-EP2281813A1
936-EP2281815A1
936-EP2281817A1
936-EP2281818A1
936-EP2281819A1
936-EP2281820A2
936-EP2281821A1
936-EP2281823A2
936-EP2281824A1
936-EP2281899A2
936-EP2283811A1
936-EP2283898A1
936-EP2284148A1
936-EP2284149A1
936-EP2284154A1
936-EP2284157A1
936-EP2284158A1
936-EP2284159A1
936-EP2284160A1
936-EP2284161A1
936-EP2284165A1
936-EP2284167A2
936-EP2284168A2
936-EP2284169A1
936-EP2284170A1
936-EP2284171A1
936-EP2284172A1
936-EP2284174A1
936-EP2284178A2
936-EP2284179A2
936-EP2286811A1
936-EP2286915A2
936-EP2287141A1
936-EP2287147A2
936-EP2287152A2
936-EP2287153A1
936-EP2287154A1
936-EP2287155A1
936-EP2287156A1
936-EP2287160A1
936-EP2287161A1
936-EP2287162A1
936-EP2287165A2
936-EP2287166A2
936-EP2287167A1
936-EP2287168A2
936-EP2287940A1
936-EP2289509A2
936-EP2289510A1
936-EP2289868A1
936-EP2289871A1
936-EP2289876A1
936-EP2289877A1
936-EP2289878A1
936-EP2289879A1
936-EP2289883A1
936-EP2289884A1
936-EP2289885A1
936-EP2289887A2
936-EP2289888A2
936-EP2289890A1
936-EP2289892A1
936-EP2289893A1
936-EP2289894A2
936-EP2289965A1
936-EP2292088A1
936-EP2292227A2
936-EP2292228A1
936-EP2292234A1
936-EP2292280A1
936-EP2292576A2
936-EP2292586A2
936-EP2292589A1
936-EP2292592A1
936-EP2292593A2
936-EP2292595A1
936-EP2292596A2
936-EP2292597A1
936-EP2292599A1
936-EP2292606A1
936-EP2292607A2
936-EP2292609A1
936-EP2292610A1
936-EP2292611A1
936-EP2292612A2
936-EP2292613A1
936-EP2292614A1
936-EP2292615A1
936-EP2292617A1
936-EP2292619A1
936-EP2292620A2
936-EP2292621A1
936-EP2292622A1
936-EP2292624A1
936-EP2292628A2
936-EP2292630A1
936-EP2295055A2
936-EP2295401A2
936-EP2295402A2
936-EP2295406A1
936-EP2295407A1
936-EP2295408A1
936-EP2295409A1
936-EP2295411A1
936-EP2295412A1
936-EP2295413A1
936-EP2295414A1
936-EP2295415A1
936-EP2295416A2
936-EP2295417A1
936-EP2295418A1
936-EP2295423A1
936-EP2295424A1
936-EP2295425A1
936-EP2295426A1
936-EP2295427A1
936-EP2295429A1
936-EP2295430A2
936-EP2295431A2
936-EP2295432A1
936-EP2295433A2
936-EP2295434A2
936-EP2295435A1
936-EP2295437A1
936-EP2295438A1
936-EP2295439A1
936-EP2295441A2
936-EP2295503A1
936-EP2298312A1
936-EP2298313A1
936-EP2298729A1
936-EP2298731A1
936-EP2298734A2
936-EP2298735A1
936-EP2298736A1
936-EP2298738A1
936-EP2298742A1
936-EP2298743A1
936-EP2298744A2
936-EP2298745A1
936-EP2298746A1
936-EP2298747A1
936-EP2298748A2
936-EP2298750A1
936-EP2298751A2
936-EP2298752A1
936-EP2298753A1
936-EP2298754A1
936-EP2298755A1
936-EP2298756A1
936-EP2298757A2
936-EP2298758A1
936-EP2298759A1
936-EP2298761A1
936-EP2298763A1
936-EP2298764A1
936-EP2298765A1
936-EP2298766A1
936-EP2298767A1
936-EP2298768A1
936-EP2298770A1
936-EP2298772A1
936-EP2298774A1
936-EP2298775A1
936-EP2298776A1
936-EP2298777A2
936-EP2298778A1
936-EP2298779A1
936-EP2298828A1
936-EP2299326A1
936-EP2299510A1
936-EP2301533A1
936-EP2301536A1
936-EP2301538A1
936-EP2301627A1
936-EP2301909A1
936-EP2301911A1
936-EP2301918A1
936-EP2301921A1
936-EP2301922A1
936-EP2301923A1
936-EP2301924A1
936-EP2301925A1
936-EP2301926A1
936-EP2301928A1
936-EP2301929A1
936-EP2301930A1
936-EP2301931A1
936-EP2301932A1
936-EP2301933A1
936-EP2301934A1
936-EP2301935A1
936-EP2301936A1
936-EP2301937A1
936-EP2301938A1
936-EP2301939A1
936-EP2301940A1
936-EP2301983A1
936-EP2302003A1
936-EP2302382A2
936-EP2302383A2
936-EP2305243A1
936-EP2305248A1
936-EP2305250A1
936-EP2305254A1
936-EP2305625A1
936-EP2305627A1
936-EP2305629A1
936-EP2305633A1
936-EP2305636A1
936-EP2305640A2
936-EP2305641A1
936-EP2305642A2
936-EP2305643A1
936-EP2305644A1
936-EP2305646A1
936-EP2305647A1
936-EP2305648A1
936-EP2305649A1
936-EP2305650A1
936-EP2305651A1
936-EP2305652A2
936-EP2305655A2
936-EP2305657A2
936-EP2305658A1
936-EP2305659A1
936-EP2305660A1
936-EP2305663A1
936-EP2305664A1
936-EP2305666A1
936-EP2305667A2
936-EP2305668A1
936-EP2305669A1
936-EP2305670A1
936-EP2305671A1
936-EP2305672A1
936-EP2305673A1
936-EP2305674A1
936-EP2305675A1
936-EP2305676A1
936-EP2305677A1
936-EP2305680A2
936-EP2305682A1
936-EP2305683A1
936-EP2305684A1
936-EP2305685A1
936-EP2305686A1
936-EP2305687A1
936-EP2305688A1
936-EP2305689A1
936-EP2305695A2
936-EP2305696A2
936-EP2305697A2
936-EP2305698A2
936-EP2305769A2
936-EP2305808A1
936-EP2305825A1
936-EP2308471A1
936-EP2308479A2
936-EP2308510A1
936-EP2308562A2
936-EP2308812A2
936-EP2308828A2
936-EP2308832A1
936-EP2308833A2
936-EP2308838A1
936-EP2308839A1
936-EP2308841A2
936-EP2308842A1
936-EP2308843A1
936-EP2308844A2
936-EP2308845A2
936-EP2308846A2
936-EP2308847A1
936-EP2308848A1
936-EP2308849A1
936-EP2308850A1
936-EP2308851A1
936-EP2308853A1
936-EP2308854A1
936-EP2308855A1
936-EP2308857A1
936-EP2308858A1
936-EP2308861A1
936-EP2308862A1
936-EP2308864A1
936-EP2308865A1
936-EP2308867A2
936-EP2308868A1
936-EP2308869A1
936-EP2308870A2
936-EP2308871A1
936-EP2308872A1
936-EP2308873A1
936-EP2308874A1
936-EP2308875A1
936-EP2308876A1
936-EP2308877A1
936-EP2308879A1
936-EP2308880A1
936-EP2308882A1
936-EP2308926A1
936-EP2308960A1
936-EP2309564A1
936-EP2309584A1
936-EP2311453A1
936-EP2311455A1
936-EP2311464A1
936-EP2311494A1
936-EP2311796A1
936-EP2311797A1
936-EP2311798A1
936-EP2311799A1
936-EP2311801A1
936-EP2311802A1
936-EP2311803A1
936-EP2311805A1
936-EP2311806A2
936-EP2311807A1
936-EP2311808A1
936-EP2311809A1
936-EP2311810A1
936-EP2311811A1
936-EP2311812A1
936-EP2311813A1
936-EP2311814A1
936-EP2311815A1
936-EP2311816A1
936-EP2311817A1
936-EP2311818A1
936-EP2311820A1
936-EP2311821A1
936-EP2311822A1
936-EP2311823A1
936-EP2311824A1
936-EP2311825A1
936-EP2311827A1
936-EP2311828A1
936-EP2311829A1
936-EP2311830A1
936-EP2311831A1
936-EP2311832A1
936-EP2311833A1
936-EP2311834A1
936-EP2311836A1
936-EP2311837A1
936-EP2311839A1
936-EP2311840A1
936-EP2311841A1
936-EP2311842A2
936-EP2311850A1
936-EP2314295A1
936-EP2314558A1
936-EP2314571A2
936-EP2314574A1
936-EP2314575A1
936-EP2314576A1
936-EP2314577A1
936-EP2314579A1
936-EP2314581A1
936-EP2314582A1
936-EP2314583A1
936-EP2314584A1
936-EP2314585A1
936-EP2314586A1
936-EP2314587A1
936-EP2314588A1
936-EP2314589A1
936-EP2314590A1
936-EP2314593A1
936-EP2315303A1
936-EP2315502A1
936-EP2316452A1
936-EP2316457A1
936-EP2316458A1
936-EP2316470A2
936-EP2316824A1
936-EP2316825A1
936-EP2316826A1
936-EP2316827A1
936-EP2316828A1
936-EP2316829A1
936-EP2316831A1
936-EP2316832A1
936-EP2316833A1
936-EP2316834A1
936-EP2316835A1
936-EP2316836A1
936-EP2316837A1
936-EP2316905A1
936-EP2316906A2
936-EP2316937A1
936-EP2316974A1
936-EP2371808A1
936-EP2371810A1
936-EP2371811A2
936-EP2371813A1
936-EP2371814A1
936-EP2371831A1
936-EP2374454A1
936-EP2374538A1
936-EP2374788A1
936-EP2374790A1
936-EP2377845A1
936-EP2377847A1
936-EP2380568A1
936-EP2380661A2
936-EP2380867A1
936-EP2380873A1
936-EP2380874A2
949-EP2269996A1
949-EP2270003A1
949-EP2270008A1
949-EP2270009A1
949-EP2272830A1
949-EP2275413A1
949-EP2275421A1
949-EP2281820A2
949-EP2281822A1
949-EP2284174A1
949-EP2287156A1
949-EP2287157A1
949-EP2287159A1
949-EP2292617A1
949-EP2295428A2
949-EP2295433A2
949-EP2295441A2
949-EP2298735A1
949-EP2298754A1
949-EP2298762A2
949-EP2298774A1
949-EP2298783A1
949-EP2301921A1
949-EP2301926A1
949-EP2301932A1
949-EP2301940A1
949-EP2305646A1
949-EP2305695A2
949-EP2305696A2
949-EP2305697A2
949-EP2305698A2
949-EP2308845A2
949-EP2308846A2
949-EP2308851A1
949-EP2308861A1
949-EP2308867A2
949-EP2308870A2
949-EP2308876A1
949-EP2311494A1
949-EP2311840A1
949-EP2311841A1
949-EP2314576A1
949-EP2316824A1
949-EP2316832A1
949-EP2316833A1
949-EP2380871A1
A0030
Ethyl acetate [UN1173] [Flammable liquid]
Ethyl acetate, natural, >=99%, FCC, FG
Ethyl acetate, SAJ first grade, >=99.0%
FT-0621744
Q0040
Ethyl acetate [UN1173] [Flammable liquid]
Ethyl acetate, for HPLC, >=99.8% (GC)
Ethyl acetate, JIS special grade, >=99.5%
J3.639.860D
6822-EP1441224A2
C00849
D02319
Ethyl acetate, capillary GC grade, >=99.5%
37556-EP2305808A1
37556-EP2311802A1
37556-EP2311803A1
Ethyl acetate, >82% in a non hazardous diluent
300085X
A807811
Ethyl acetate, Laboratory Reagent, >=99.0% (GC)
I14-2577
J-007556
J-521240
Ethyl acetate, UV-IR min. 99.8 %, isocratic grade
Ethyl acetate, >10 - 82% in a non hazardous diluent
F0001-0489
InChI=1/C4H8O2/c1-3-6-4(2)5/h3H2,1-2H
UNII-LM8ZO3J16V component XEKOWRVHYACXOJ-UHFFFAOYSA-N
Ethyl acetate, 99.9%, for electronic use (MOS), residue free
Ethyl acetate, puriss. p.a., ACS reagent, >=99.5% (GC)
Ethyl acetate, for residue analysis, suitable for 5000 per JIS
Ethyl acetate, United States Pharmacopeia (USP) Reference Standard
Ethyl acetate, HPLC Plus, for HPLC, GC, and residue analysis, 99.9%
Ethyl acetate, suitable for 1000 per JIS, >=99.5%, for residue analysis
Ethyl acetate, suitable for 300 per JIS, >=99.5%, for residue analysis
Ethyl Acetate, Pharmaceutical Secondary Standard; Certified Reference Material
Ethyl acetate, puriss. p.a., ACS reagent, reag. ISO, reag. Ph. Eur., >=99.5% (GC)
Ethyl acetate, puriss. p.a., free of higher boiling impurities, >=99.9% (GC)
Ethyl acetate, puriss., meets analytical specification of Ph. Eur., BP, NF, >=99.5% (GC)

> <TPSA>
26.3

> <TotalAidCount>
435

> <TotalFormalCharge>
0

> <XLogP>
0.7

> <database>
PubChem Compound

> <matchingCount>
176

> <primaryID>
8857

> <queryTranslation>
7628[CompoundID] OR 244[CompoundID] OR 25059[CompoundID] OR 7618[CompoundID] OR 7641[CompoundID] OR 5053[CompoundID] OR 637511[CompoundID] OR 7714[CompoundID] OR 7762[CompoundID] OR 25429[CompoundID]
OR 8842[CompoundID] OR 7794[CompoundID] OR 637566[CompoundID] OR 7843[CompoundID] OR 174[CompoundID] OR 7870[CompoundID] OR 86102[CompoundID] OR 7888[CompoundID] OR 7896[CompoundID] OR 1140[CompoundID
] OR 8042[CompoundID] OR 8058[CompoundID] OR 8078[CompoundID] OR 8087[CompoundID] OR 8117[CompoundID] OR 8133[CompoundID] OR 115224[CompoundID] OR 8175[CompoundID] OR 8194[CompoundID] OR 445639[Compou
ndID] OR 4944[CompoundID] OR 8294[CompoundID] OR 93541[CompoundID] OR 8360[CompoundID] OR 8363[CompoundID] OR 656612[CompoundID] OR 125098[CompoundID] OR 3352[CompoundID] OR 3303913[CompoundID] OR 648
05[CompoundID] OR 31200[CompoundID] OR 1712058[CompoundID] OR 31236[CompoundID] OR 31239[CompoundID] OR 31265[CompoundID] OR 31266[CompoundID] OR 31276[CompoundID] OR 6950273[CompoundID] OR 518659[Com
poundID] OR 14896[CompoundID] OR 14798[CompoundID] OR 14829[CompoundID] OR 14830[CompoundID] OR 8635[CompoundID] OR 23266[CompoundID] OR 4284[CompoundID] OR 8693[CompoundID] OR 22311[CompoundID] OR 87
59[CompoundID] OR 8785[CompoundID] OR 2723810[CompoundID] OR 8857[CompoundID] OR 3893[CompoundID] OR 9936739[CompoundID] OR 516892[CompoundID] OR 5430[CompoundID] OR 9017[CompoundID] OR 15433[Compound
ID] OR 107720[CompoundID] OR 9552081[CompoundID] OR 164825[CompoundID] OR 10275455[CompoundID] OR 16666[CompoundID] OR 9839306[CompoundID] OR 5282227[CompoundID] OR 23676745[CompoundID] OR 32881[Compo
undID] OR 91581[CompoundID] OR 39800[CompoundID] OR 33344[CompoundID] OR 15962220[CompoundID] OR 33528[CompoundID] OR 5365075[CompoundID] OR 62829[CompoundID] OR 162381[CompoundID] OR 517202[CompoundI
D] OR 6433353[CompoundID] OR 2730[CompoundID] OR 5372405[CompoundID] OR 36081[CompoundID] OR 3120[CompoundID] OR 3017[CompoundID] OR 2969[CompoundID] OR 18827[CompoundID] OR 19518[CompoundID] OR 19658
[CompoundID] OR 38283[CompoundID] OR 2758[CompoundID] OR 10112[CompoundID] OR 10340[CompoundID] OR 712[CompoundID] OR 5794[CompoundID] OR 3347[CompoundID] OR 104150[CompoundID] OR 2912[CompoundID] OR
2450[CompoundID] OR 40326[CompoundID] OR 40585[CompoundID] OR 517055[CompoundID] OR 10913[CompoundID] OR 108242[CompoundID] OR 62097[CompoundID] OR 41679[CompoundID] OR 54680676[CompoundID] OR 62118[C
ompoundID] OR 753[CompoundID] OR 1030[CompoundID] OR 23673837[CompoundID] OR 54678504[CompoundID] OR 11442[CompoundID] OR 11463[CompoundID] OR 22230[CompoundID] OR 440917[CompoundID] OR 6054[CompoundI
D] OR 43234[CompoundID] OR 22629[CompoundID] OR 3039[CompoundID] OR 2735067[CompoundID] OR 6144[CompoundID] OR 702[CompoundID] OR 284[CompoundID] OR 176[CompoundID] OR 91688[CompoundID] OR 22947[Compo
undID] OR 47445[CompoundID] OR 1711973[CompoundID] OR 243[CompoundID] OR 10342051[CompoundID] OR 5281875[CompoundID] OR 3776[CompoundID] OR 6224[CompoundID] OR 104926[CompoundID] OR 8755[CompoundID] O
R 338[CompoundID] OR 123622[CompoundID] OR 23954[CompoundID] OR 6334[CompoundID] OR 2537[CompoundID] OR 24261[CompoundID] OR 23665760[CompoundID] OR 83975[CompoundID] OR 784[CompoundID] OR 24437[Compo
undID] OR 5360315[CompoundID] OR 311[CompoundID] OR 6549[CompoundID] OR 107689[CompoundID] OR 17100[CompoundID] OR 24976875[CompoundID] OR 6654[CompoundID] OR 71245[CompoundID] OR 6442842[CompoundID]
OR 62334[CompoundID] OR 54698175[CompoundID] OR 6328154[CompoundID] OR 24762[CompoundID] OR 440950[CompoundID] OR 7017[CompoundID] OR 5281873[CompoundID] OR 323[CompoundID] OR 5281167[CompoundID] OR 7
175[CompoundID] OR 7292[CompoundID] OR 6335613[CompoundID] OR 7456[CompoundID] OR 7462[CompoundID]

> <resultIndex>
106

> <resultRange>
1-176

> <textQuery>
7628,244,25059,7618,7641,5053,637511,7714,7762,25429,8842,7794,637566,7843,174,7870,86102,7888,7896,1140,8042,8058,8078,8087,8117,8133,115224,8175,8194,445639,4944,8294,93541,8360,8363,656612,125098,3
352,3303913,64805,31200,1712058,31236,31239,31265,31266,31276,6950273,518659,14896,14798,14829,14830,8635,23266,4284,8693,22311,8759,8785,2723810,8857,3893,9936739,516892,5430,9017,15433,107720,955208
1,164825,10275455,16666,9839306,5282227,23676745,32881,91581,39800,33344,15962220,33528,5365075,62829,162381,517202,6433353,2730,5372405,36081,3120,3017,2969,18827,19518,19658,38283,2758,10112,10340,7
12,5794,3347,104150,2912,2450,40326,40585,517055,10913,108242,62097,41679,54680676,62118,753,1030,23673837,54678504,11442,11463,22230,440917,6054,43234,22629,3039,2735067,6144,702,284,176,91688,22947,
47445,1711973,243,10342051,5281875,3776,6224,104926,8755,338,123622,23954,6334,2537,24261,23665760,83975,784,24437,5360315,311,6549,107689,17100,24976875,6654,71245,6442842,62334,54698175,6328154,2476
2,440950,7017,5281873,323,5281167,7175,7292,6335613,7456,7462

$$$$
8,842
  SciTegic10191915303D

 31 30  0  0  1  0            999 V2000
   -1.6950   -2.3590   -0.5370 C   0  0
   -1.6560   -3.3220   -1.7250 C   0  0
    0.6640    1.5780    1.5530 C   0  0
   -0.7050   -0.2360    0.4610 C   0  0
    0.3420    0.8610    0.2700 C   0  0
   -2.2850   -4.5240   -1.3380 O   0  0
    2.3220    2.9750    2.8570 C   0  0
    1.8110    2.2730    1.6290 C   0  0
    2.6720    2.3750    0.3960 C   0  0
   -0.9350   -1.0610   -0.8070 C   0  0  3  0  0  0
   -1.5560   -0.2380   -1.9380 C   0  0
   -2.7230   -2.1500   -0.2420 H   0  0
   -1.3180   -2.8440    0.3630 H   0  0
   -0.6290   -3.5510   -2.0020 H   0  0
   -2.2050   -2.9100   -2.5720 H   0  0
    0.0550    1.5920    2.4450 H   0  0
   -0.4350   -0.8850    1.2970 H   0  0
   -1.6420    0.1840    0.8240 H   0  0
   -0.0860    1.5610   -0.4490 H   0  0
    1.2540    0.4530   -0.1660 H   0  0
   -2.2520   -5.1210   -2.1020 H   0  0
    1.9890    2.5180    3.7890 H   0  0
    1.9890    4.0120    2.8570 H   0  0
    3.4120    2.9750    2.8570 H   0  0
    2.1020    2.5040   -0.5230 H   0  0
    3.2740    1.4730    0.2910 H   0  0
    3.3520    3.2210    0.4900 H   0  0
    0.0080   -1.2640   -1.3130 H   0  0
   -1.6480   -0.8380   -2.8440 H   0  0
   -2.5410    0.1270   -1.6520 H   0  0
   -0.9330    0.6250   -2.1720 H   0  0
  1  2  1  0
  1 10  1  0
  2  6  1  0
  3  8  2  0
  3  5  1  0
  4 10  1  0
  4  5  1  0
  7  8  1  0
  8  9  1  0
 10 11  1  0
  1 12  1  0
  1 13  1  0
  2 14  1  0
  2 15  1  0
  3 16  1  0
  4 17  1  0
  4 18  1  0
  5 19  1  0
  5 20  1  0
  6 21  1  0
  7 22  1  0
  7 23  1  0
  7 24  1  0
  9 25  1  0
  9 26  1  0
  9 27  1  0
 10 28  1  0
 11 29  1  0
 11 30  1  0
 11 31  1  0
M  END
> <Name>
8,842

> <OBJECTID>
9223372483534716939

> <ActiveAidCount>
5

> <AtomChiralCount>
1

> <AtomChiralDefCount>
0

> <AtomChiralUndefCount>
1

> <BondChiralCount>
0

> <BondChiralDefCount>
0

> <BondChiralUndefCount>
0

> <CID>
8842

> <CanonicalSmiles>
CC(CCC=C(C)C)CCO

> <Complexity>
112

> <CovalentUnitCount>
1

> <CreateDate>
2005/03/26 00:00

> <HeavyAtomCount>
11

> <HydrogenBondAcceptorCount>
1

> <HydrogenBondDonorCount>
1

> <IUPACName>
3,7-dimethyloct-6-en-1-ol

> <InChI>
InChI=1S/C10H20O/c1-9(2)5-4-6-10(3)7-8-11/h5,10-11H,4,6-8H2,1-3H3

> <InChIKey>
QMVPMAAFGQKVCJ-UHFFFAOYSA-N

> <IsomericSmiles>
CC(CCC=C(C)C)CCO

> <IsotopeAtomCount>
0

> <MeSHHeading>
citronellol

> <MeSHTerm>
citronellol, (R)-isomer
citronellol, titanium (+4) salt
citronellol
citronellol, (S)-isomer
citronellol, (+-)-isomer

> <MolecularFormula>
C10H20O

> <MolecularWeight>
156.26

> <RotatableBondCount>
5

> <Smiles>
C(C(C)CC\C=C(/C)\C)CO

> <SourceCategory>
Chemical Vendors
Legacy Depositors
Research and Development
Curation Efforts
Governmental Organizations
NIH Initiatives
Subscription Services
Journal Publishers

> <Synonym>
Citronellol
106-22-9
3,7-Dimethyloct-6-en-1-ol
beta-Citronellol
3,7-DIMETHYL-6-OCTEN-1-OL
DL-Citronellol
Cephrol
6-Octen-1-ol, 3,7-dimethyl-
Elenol
Rodinol
2,3-Dihydrogeraniol
2,6-Dimethyl-2-octen-8-ol
.beta.-Citronellol
CHEBI:50462
NSC 8779
MFCD00002935
(+/-)-beta-Citronellol
3,7-dimethyl-oct-6-en-1-ol
NSC8779
QMVPMAAFGQKVCJ-UHFFFAOYSA-N
Citronellol, 95%
26489-01-0
Citronellol (natural)
(+/-)-3,7-dimethyloct-6-en-1-ol
ST069325
DSSTox_CID_6726
DSSTox_RID_78201
DSSTox_GSID_26726
l-Citronellol
W-108771
W-109198
W-110227
CCRIS 7452
EINECS 203-375-0
Citronellol, dl-
BRN 1721507
CAS-106-22-9
AI3-25080
Citronellol (ex. Java citronella oil) (natural)
(+-)-beta-citronellol
(+-)-CITRONELLOL
(R)-(+)-.beta.-Citronellol
Dihydrogeraniol
(+/-)-beta-Citronellol, primary pharmaceutical reference standard
Levo-citronellol
AK-68278
6-Octen-1-ol, 3,7-dimethyl-, (S)-
EINECS 247-737-6
Oils,geranium,sapond.
beta-Citronellol, 95%
(+-)-beta;-Citronellol
CITRONELLOL BRI FCC
ACMC-2098iz
EC 203-375-0
AC1L1RT1
AC1Q2A1O
SCHEMBL21320
4-01-00-02188 (Beilstein Handbook Reference)
6-Octen-1-ol,7-dimethyl-
68916-43-8
KSC492E7L
MLS002415719
3,7-dimethyl-oct-6-en1-ol
CHEMBL395827
DTXSID3026726
CTK3J2275
HSDB 6805
KS-00000URS
WLN: Q2Y1&3UY1&1
HMS2267B17
BB_NC-00067
Citronellol, >=95%, FCC, FG
NSC-8779
ZX-AT010559
Tox21_202119
Tox21_300003
ANW-15321
BBL009826
BDBM50037035
OR6011
SBB012357
STK085542
AKOS005393175
MCULE-4204888723
RTR-001235
ACM26489010
NCGC00091348-01
NCGC00091348-02
NCGC00091348-03
NCGC00091348-04
NCGC00254145-01
NCGC00259668-01
AN-22416
AS-14688
BP-21491
CC-25897
M190
SMR000112138
DB-074976
TR-001235
(+/-)-beta-Citronellol, analytical standard
FT-0622896
FT-0693159
( inverted exclamation markA)-|A-Citronellol
C-33687
Citronellol, mixture of isomers, natural, >=95%, FG
I14-113476

> <TPSA>
20.2

> <TotalAidCount>
812

> <TotalFormalCharge>
0

> <XLogP>
3.2

> <database>
PubChem Compound

> <matchingCount>
176

> <primaryID>
8842

> <queryTranslation>
7628[CompoundID] OR 244[CompoundID] OR 25059[CompoundID] OR 7618[CompoundID] OR 7641[CompoundID] OR 5053[CompoundID] OR 637511[CompoundID] OR 7714[CompoundID] OR 7762[CompoundID] OR 25429[CompoundID]
OR 8842[CompoundID] OR 7794[CompoundID] OR 637566[CompoundID] OR 7843[CompoundID] OR 174[CompoundID] OR 7870[CompoundID] OR 86102[CompoundID] OR 7888[CompoundID] OR 7896[CompoundID] OR 1140[CompoundID
] OR 8042[CompoundID] OR 8058[CompoundID] OR 8078[CompoundID] OR 8087[CompoundID] OR 8117[CompoundID] OR 8133[CompoundID] OR 115224[CompoundID] OR 8175[CompoundID] OR 8194[CompoundID] OR 445639[Compou
ndID] OR 4944[CompoundID] OR 8294[CompoundID] OR 93541[CompoundID] OR 8360[CompoundID] OR 8363[CompoundID] OR 656612[CompoundID] OR 125098[CompoundID] OR 3352[CompoundID] OR 3303913[CompoundID] OR 648
05[CompoundID] OR 31200[CompoundID] OR 1712058[CompoundID] OR 31236[CompoundID] OR 31239[CompoundID] OR 31265[CompoundID] OR 31266[CompoundID] OR 31276[CompoundID] OR 6950273[CompoundID] OR 518659[Com
poundID] OR 14896[CompoundID] OR 14798[CompoundID] OR 14829[CompoundID] OR 14830[CompoundID] OR 8635[CompoundID] OR 23266[CompoundID] OR 4284[CompoundID] OR 8693[CompoundID] OR 22311[CompoundID] OR 87
59[CompoundID] OR 8785[CompoundID] OR 2723810[CompoundID] OR 8857[CompoundID] OR 3893[CompoundID] OR 9936739[CompoundID] OR 516892[CompoundID] OR 5430[CompoundID] OR 9017[CompoundID] OR 15433[Compound
ID] OR 107720[CompoundID] OR 9552081[CompoundID] OR 164825[CompoundID] OR 10275455[CompoundID] OR 16666[CompoundID] OR 9839306[CompoundID] OR 5282227[CompoundID] OR 23676745[CompoundID] OR 32881[Compo
undID] OR 91581[CompoundID] OR 39800[CompoundID] OR 33344[CompoundID] OR 15962220[CompoundID] OR 33528[CompoundID] OR 5365075[CompoundID] OR 62829[CompoundID] OR 162381[CompoundID] OR 517202[CompoundI
D] OR 6433353[CompoundID] OR 2730[CompoundID] OR 5372405[CompoundID] OR 36081[CompoundID] OR 3120[CompoundID] OR 3017[CompoundID] OR 2969[CompoundID] OR 18827[CompoundID] OR 19518[CompoundID] OR 19658
[CompoundID] OR 38283[CompoundID] OR 2758[CompoundID] OR 10112[CompoundID] OR 10340[CompoundID] OR 712[CompoundID] OR 5794[CompoundID] OR 3347[CompoundID] OR 104150[CompoundID] OR 2912[CompoundID] OR
2450[CompoundID] OR 40326[CompoundID] OR 40585[CompoundID] OR 517055[CompoundID] OR 10913[CompoundID] OR 108242[CompoundID] OR 62097[CompoundID] OR 41679[CompoundID] OR 54680676[CompoundID] OR 62118[C
ompoundID] OR 753[CompoundID] OR 1030[CompoundID] OR 23673837[CompoundID] OR 54678504[CompoundID] OR 11442[CompoundID] OR 11463[CompoundID] OR 22230[CompoundID] OR 440917[CompoundID] OR 6054[CompoundI
D] OR 43234[CompoundID] OR 22629[CompoundID] OR 3039[CompoundID] OR 2735067[CompoundID] OR 6144[CompoundID] OR 702[CompoundID] OR 284[CompoundID] OR 176[CompoundID] OR 91688[CompoundID] OR 22947[Compo
undID] OR 47445[CompoundID] OR 1711973[CompoundID] OR 243[CompoundID] OR 10342051[CompoundID] OR 5281875[CompoundID] OR 3776[CompoundID] OR 6224[CompoundID] OR 104926[CompoundID] OR 8755[CompoundID] O
R 338[CompoundID] OR 123622[CompoundID] OR 23954[CompoundID] OR 6334[CompoundID] OR 2537[CompoundID] OR 24261[CompoundID] OR 23665760[CompoundID] OR 83975[CompoundID] OR 784[CompoundID] OR 24437[Compo
undID] OR 5360315[CompoundID] OR 311[CompoundID] OR 6549[CompoundID] OR 107689[CompoundID] OR 17100[CompoundID] OR 24976875[CompoundID] OR 6654[CompoundID] OR 71245[CompoundID] OR 6442842[CompoundID]
OR 62334[CompoundID] OR 54698175[CompoundID] OR 6328154[CompoundID] OR 24762[CompoundID] OR 440950[CompoundID] OR 7017[CompoundID] OR 5281873[CompoundID] OR 323[CompoundID] OR 5281167[CompoundID] OR 7
175[CompoundID] OR 7292[CompoundID] OR 6335613[CompoundID] OR 7456[CompoundID] OR 7462[CompoundID]

> <resultIndex>
107

> <resultRange>
1-176

> <textQuery>
7628,244,25059,7618,7641,5053,637511,7714,7762,25429,8842,7794,637566,7843,174,7870,86102,7888,7896,1140,8042,8058,8078,8087,8117,8133,115224,8175,8194,445639,4944,8294,93541,8360,8363,656612,125098,3
352,3303913,64805,31200,1712058,31236,31239,31265,31266,31276,6950273,518659,14896,14798,14829,14830,8635,23266,4284,8693,22311,8759,8785,2723810,8857,3893,9936739,516892,5430,9017,15433,107720,955208
1,164825,10275455,16666,9839306,5282227,23676745,32881,91581,39800,33344,15962220,33528,5365075,62829,162381,517202,6433353,2730,5372405,36081,3120,3017,2969,18827,19518,19658,38283,2758,10112,10340,7
12,5794,3347,104150,2912,2450,40326,40585,517055,10913,108242,62097,41679,54680676,62118,753,1030,23673837,54678504,11442,11463,22230,440917,6054,43234,22629,3039,2735067,6144,702,284,176,91688,22947,
47445,1711973,243,10342051,5281875,3776,6224,104926,8755,338,123622,23954,6334,2537,24261,23665760,83975,784,24437,5360315,311,6549,107689,17100,24976875,6654,71245,6442842,62334,54698175,6328154,2476
2,440950,7017,5281873,323,5281167,7175,7292,6335613,7456,7462

$$$$
8,785
  SciTegic10191915303D

 21 21  0  0  0  0            999 V2000
    2.4380    2.4120   -1.8450 C   0  0
    1.5740    2.2230   -0.6270 C   0  0
    1.4980    3.0820    0.2190 O   0  0
    0.9240    1.0640   -0.5680 O   0  0
    0.1290    0.9510    0.6020 C   0  0
   -0.5660   -0.3630    0.6020 C   0  0
   -1.9730   -0.4140    0.6020 C   0  0
   -2.6310   -1.6560    0.6020 C   0  0
   -1.8850   -2.8480    0.6020 C   0  0
   -0.4800   -2.7970    0.6020 C   0  0
    0.1800   -1.5550    0.6020 C   0  0
    2.9280    3.3850   -1.8060 H   0  0
    3.1640    1.6010   -1.9140 H   0  0
    1.8220    2.3830   -2.7440 H   0  0
   -0.6090    1.7540    0.5940 H   0  0
    0.7870    1.0140    1.4690 H   0  0
   -2.5530    0.4980    0.6020 H   0  0
   -3.7090   -1.6960    0.6020 H   0  0
   -2.3910   -3.8030    0.6020 H   0  0
    0.0940   -3.7110    0.6020 H   0  0
    1.2600   -1.5220    0.6020 H   0  0
  1  2  1  0
  2  3  2  0
  2  4  1  0
  4  5  1  0
  5  6  1  0
  6  7  2  0
  6 11  1  0
  7  8  1  0
  8  9  2  0
  9 10  1  0
 10 11  2  0
  1 12  1  0
  1 13  1  0
  1 14  1  0
  5 15  1  0
  5 16  1  0
  7 17  1  0
  8 18  1  0
  9 19  1  0
 10 20  1  0
 11 21  1  0
M  END
> <Name>
8,785

> <OBJECTID>
9223372487829684235

> <ActiveAidCount>
9

> <AtomChiralCount>
0

> <AtomChiralDefCount>
0

> <AtomChiralUndefCount>
0

> <BondChiralCount>
0

> <BondChiralDefCount>
0

> <BondChiralUndefCount>
0

> <CID>
8785

> <CanonicalSmiles>
CC(=O)OCC1=CC=CC=C1

> <Complexity>
126

> <CovalentUnitCount>
1

> <CreateDate>
2005/03/26 00:00

> <HeavyAtomCount>
11

> <HydrogenBondAcceptorCount>
2

> <HydrogenBondDonorCount>
0

> <IUPACName>
benzyl acetate

> <InChI>
InChI=1S/C9H10O2/c1-8(10)11-7-9-5-3-2-4-6-9/h2-6H,7H2,1H3

> <InChIKey>
QUKGYYKBILRGFE-UHFFFAOYSA-N

> <IsomericSmiles>
CC(=O)OCC1=CC=CC=C1

> <IsotopeAtomCount>
0

> <MeSHHeading>
benzyl acetate

> <MeSHTerm>
(14C)benzyl acetate
benzyl (1-14C)acetate
benzyl acetate
benzyl (2-14C)acetate
acetic acid benzyl ester

> <MolecularFormula>
C9H10O2

> <MolecularWeight>
150.17

> <RotatableBondCount>
3

> <Smiles>
CC(OCc1ccccc1)=O

> <SourceCategory>
Chemical Vendors
Legacy Depositors
Research and Development
Curation Efforts
Governmental Organizations
NIH Initiatives
Subscription Services
Journal Publishers

> <Synonym>
BENZYL ACETATE
140-11-4
Acetic acid benzyl ester
Acetic acid, phenylmethyl ester
Benzyl ethanoate
Phenylmethyl acetate
Acetic acid, benzyl ester
alpha-Acetoxytoluene
Phenylmethyl ethanoate
(Acetoxymethyl)benzene
Benzylester kyseliny octove
NCI-C06508
Caswell No. 081EA
Benzyl acetate (natural)
Plastolin I
UNII-0ECG3V79ZJ
NSC 4550
Acetic acid phenylmethyl ester
FEMA No. 2135
CCRIS 1423
.alpha.-Acetoxytoluene
HSDB 2851
Benzylester kyseliny octove [Czech]
ACETATO DE BENCILO
EINECS 205-399-7
MFCD00008712
Benzyl ester of acetic acid
0ECG3V79ZJ
AI3-01996
CHEBI:52051
FEMA 2135
QUKGYYKBILRGFE-UHFFFAOYSA-N
Benzyl acetate + glycine combination
DSSTox_CID_151
DSSTox_RID_75403
DSSTox_GSID_20151
CAS-140-11-4
Benzyl acetate, primary pharmaceutical reference standard
Acetic acid benzyl
nchem.167-comp5
Benzyl Acetate Natural
AC1Q1LCB
Benzyl acetate, >=99%
EC 205-399-7
AC1L1RP1
WLN: 1VO1R
SCHEMBL43745
KSC176K9F
Acetic acid,phenylmethyl ester
ACMC-1C253
ACETIC ACID:BENZYL ESTER
CHEMBL1233714
DTXSID0020151
CTK0H6592
NSC4550
ZINC157134
Benzyl acetate, analytical standard
KS-00000X5U
NSC-4550
Tox21_201826
Tox21_302841
ANW-20548
LABOTEST-BB LT00849692
SBB058375
STL283809
Benzyl acetate, >=99%, FCC, FG
AKOS015841099
AS01460
MCULE-7952998506
RL01714
RTR-005228
NCGC00090779-01
NCGC00090779-02
NCGC00090779-03
NCGC00256379-01
NCGC00259375-01
AK308325
AN-23169
ZB006567
TR-005228
A0022
Benzyl acetate, natural, >=99%, FCC, FG
E1501
FT-0621741
ST50824209
Benzyl acetate, Selectophore(TM), >=99.5%
C15513
I01-6869
J-007357
W-200649
InChI=1/C9H10O2/c1-8(10)11-7-9-5-3-2-4-6-9/h2-6H,7H2,1H
J0Z

> <TPSA>
26.3

> <TotalAidCount>
374

> <TotalFormalCharge>
0

> <XLogP>
2

> <database>
PubChem Compound

> <matchingCount>
176

> <primaryID>
8785

> <queryTranslation>
7628[CompoundID] OR 244[CompoundID] OR 25059[CompoundID] OR 7618[CompoundID] OR 7641[CompoundID] OR 5053[CompoundID] OR 637511[CompoundID] OR 7714[CompoundID] OR 7762[CompoundID] OR 25429[CompoundID]
OR 8842[CompoundID] OR 7794[CompoundID] OR 637566[CompoundID] OR 7843[CompoundID] OR 174[CompoundID] OR 7870[CompoundID] OR 86102[CompoundID] OR 7888[CompoundID] OR 7896[CompoundID] OR 1140[CompoundID
] OR 8042[CompoundID] OR 8058[CompoundID] OR 8078[CompoundID] OR 8087[CompoundID] OR 8117[CompoundID] OR 8133[CompoundID] OR 115224[CompoundID] OR 8175[CompoundID] OR 8194[CompoundID] OR 445639[Compou
ndID] OR 4944[CompoundID] OR 8294[CompoundID] OR 93541[CompoundID] OR 8360[CompoundID] OR 8363[CompoundID] OR 656612[CompoundID] OR 125098[CompoundID] OR 3352[CompoundID] OR 3303913[CompoundID] OR 648
05[CompoundID] OR 31200[CompoundID] OR 1712058[CompoundID] OR 31236[CompoundID] OR 31239[CompoundID] OR 31265[CompoundID] OR 31266[CompoundID] OR 31276[CompoundID] OR 6950273[CompoundID] OR 518659[Com
poundID] OR 14896[CompoundID] OR 14798[CompoundID] OR 14829[CompoundID] OR 14830[CompoundID] OR 8635[CompoundID] OR 23266[CompoundID] OR 4284[CompoundID] OR 8693[CompoundID] OR 22311[CompoundID] OR 87
59[CompoundID] OR 8785[CompoundID] OR 2723810[CompoundID] OR 8857[CompoundID] OR 3893[CompoundID] OR 9936739[CompoundID] OR 516892[CompoundID] OR 5430[CompoundID] OR 9017[CompoundID] OR 15433[Compound
ID] OR 107720[CompoundID] OR 9552081[CompoundID] OR 164825[CompoundID] OR 10275455[CompoundID] OR 16666[CompoundID] OR 9839306[CompoundID] OR 5282227[CompoundID] OR 23676745[CompoundID] OR 32881[Compo
undID] OR 91581[CompoundID] OR 39800[CompoundID] OR 33344[CompoundID] OR 15962220[CompoundID] OR 33528[CompoundID] OR 5365075[CompoundID] OR 62829[CompoundID] OR 162381[CompoundID] OR 517202[CompoundI
D] OR 6433353[CompoundID] OR 2730[CompoundID] OR 5372405[CompoundID] OR 36081[CompoundID] OR 3120[CompoundID] OR 3017[CompoundID] OR 2969[CompoundID] OR 18827[CompoundID] OR 19518[CompoundID] OR 19658
[CompoundID] OR 38283[CompoundID] OR 2758[CompoundID] OR 10112[CompoundID] OR 10340[CompoundID] OR 712[CompoundID] OR 5794[CompoundID] OR 3347[CompoundID] OR 104150[CompoundID] OR 2912[CompoundID] OR
2450[CompoundID] OR 40326[CompoundID] OR 40585[CompoundID] OR 517055[CompoundID] OR 10913[CompoundID] OR 108242[CompoundID] OR 62097[CompoundID] OR 41679[CompoundID] OR 54680676[CompoundID] OR 62118[C
ompoundID] OR 753[CompoundID] OR 1030[CompoundID] OR 23673837[CompoundID] OR 54678504[CompoundID] OR 11442[CompoundID] OR 11463[CompoundID] OR 22230[CompoundID] OR 440917[CompoundID] OR 6054[CompoundI
D] OR 43234[CompoundID] OR 22629[CompoundID] OR 3039[CompoundID] OR 2735067[CompoundID] OR 6144[CompoundID] OR 702[CompoundID] OR 284[CompoundID] OR 176[CompoundID] OR 91688[CompoundID] OR 22947[Compo
undID] OR 47445[CompoundID] OR 1711973[CompoundID] OR 243[CompoundID] OR 10342051[CompoundID] OR 5281875[CompoundID] OR 3776[CompoundID] OR 6224[CompoundID] OR 104926[CompoundID] OR 8755[CompoundID] O
R 338[CompoundID] OR 123622[CompoundID] OR 23954[CompoundID] OR 6334[CompoundID] OR 2537[CompoundID] OR 24261[CompoundID] OR 23665760[CompoundID] OR 83975[CompoundID] OR 784[CompoundID] OR 24437[Compo
undID] OR 5360315[CompoundID] OR 311[CompoundID] OR 6549[CompoundID] OR 107689[CompoundID] OR 17100[CompoundID] OR 24976875[CompoundID] OR 6654[CompoundID] OR 71245[CompoundID] OR 6442842[CompoundID]
OR 62334[CompoundID] OR 54698175[CompoundID] OR 6328154[CompoundID] OR 24762[CompoundID] OR 440950[CompoundID] OR 7017[CompoundID] OR 5281873[CompoundID] OR 323[CompoundID] OR 5281167[CompoundID] OR 7
175[CompoundID] OR 7292[CompoundID] OR 6335613[CompoundID] OR 7456[CompoundID] OR 7462[CompoundID]

> <resultIndex>
108

> <resultRange>
1-176

> <textQuery>
7628,244,25059,7618,7641,5053,637511,7714,7762,25429,8842,7794,637566,7843,174,7870,86102,7888,7896,1140,8042,8058,8078,8087,8117,8133,115224,8175,8194,445639,4944,8294,93541,8360,8363,656612,125098,3
352,3303913,64805,31200,1712058,31236,31239,31265,31266,31276,6950273,518659,14896,14798,14829,14830,8635,23266,4284,8693,22311,8759,8785,2723810,8857,3893,9936739,516892,5430,9017,15433,107720,955208
1,164825,10275455,16666,9839306,5282227,23676745,32881,91581,39800,33344,15962220,33528,5365075,62829,162381,517202,6433353,2730,5372405,36081,3120,3017,2969,18827,19518,19658,38283,2758,10112,10340,7
12,5794,3347,104150,2912,2450,40326,40585,517055,10913,108242,62097,41679,54680676,62118,753,1030,23673837,54678504,11442,11463,22230,440917,6054,43234,22629,3039,2735067,6144,702,284,176,91688,22947,
47445,1711973,243,10342051,5281875,3776,6224,104926,8755,338,123622,23954,6334,2537,24261,23665760,83975,784,24437,5360315,311,6549,107689,17100,24976875,6654,71245,6442842,62334,54698175,6328154,2476
2,440950,7017,5281873,323,5281167,7175,7292,6335613,7456,7462

$$$$
8,759
  SciTegic10191915303D

 32 31  0  0  0  0            999 V2000
    2.9710   -3.3180    1.3050 O   0  5
    2.4320   -2.3110    0.8480 C   0  0
    3.0550   -1.3670    0.4200 O   0  0
    0.9260   -2.3110    0.8480 C   0  0
    0.4260   -0.9470    0.8480 N   0  0
   -0.9840   -0.9220    0.4960 C   0  0
   -1.4020    0.4810    0.0550 C   0  0
   -0.6430    0.8950   -1.1130 N   0  0
   -0.9570    0.0490   -2.2520 C   0  0
    0.0820   -1.0310   -2.3980 C   0  0
   -0.3240   -2.1190   -2.8030 O   0  5
    1.2420   -0.8180   -2.1310 O   0  0
   -0.9080    2.2890   -1.4260 C   0  0
   -0.3200    3.1800   -0.3650 C   0  0
    0.9060    3.2580   -0.3460 O   0  5
   -1.0310    3.7760    0.4100 O   0  0
    0.6350   -0.3280    2.1470 C   0  0
    1.0470    1.1110    1.9750 C   0  0
    2.0940    1.3030    1.3600 O   0  5
    0.3730    2.0080    2.4220 O   0  0
    0.5570   -2.8340   -0.0330 H   0  0
    0.5570   -2.8340    1.7310 H   0  0
   -1.5780   -1.2520    1.3480 H   0  0
   -1.1720   -1.6460   -0.2970 H   0  0
   -1.2500    1.1990    0.8610 H   0  0
   -2.4670    0.5120   -0.1760 H   0  0
   -0.9920    0.6540   -3.1560 H   0  0
   -1.9390   -0.4000   -2.1090 H   0  0
   -1.9840    2.4470   -1.4880 H   0  0
   -0.4770    2.5310   -2.3960 H   0  0
   -0.2830   -0.3830    2.7290 H   0  0
    1.4100   -0.8710    2.6880 H   0  0
  1  2  1  0
  2  3  2  0
  2  4  1  0
  4  5  1  0
  5  6  1  0
  5 17  1  0
  6  7  1  0
  7  8  1  0
  8  9  1  0
  8 13  1  0
  9 10  1  0
 10 11  1  0
 10 12  2  0
 13 14  1  0
 14 15  1  0
 14 16  2  0
 17 18  1  0
 18 19  1  0
 18 20  2  0
  4 21  1  0
  4 22  1  0
  6 23  1  0
  6 24  1  0
  7 25  1  0
  7 26  1  0
  9 27  1  0
  9 28  1  0
 13 29  1  0
 13 30  1  0
 17 31  1  0
 17 32  1  0
M  CHG  4   1  -1  11  -1  15  -1  19  -1
M  END
> <Name>
8,759

> <OBJECTID>
9223372492124651531

> <ActiveAidCount>
2

> <AtomChiralCount>
0

> <AtomChiralDefCount>
0

> <AtomChiralUndefCount>
0

> <BondChiralCount>
0

> <BondChiralDefCount>
0

> <BondChiralUndefCount>
0

> <CID>
8759

> <CanonicalSmiles>
C(CN(CC(=O)O)CC(=O)[O-])N(CC(=O)O)CC(=O)[O-].[Na+].[Na+]

> <Complexity>
336

> <CovalentUnitCount>
3

> <CreateDate>
2005/03/27 00:00

> <HeavyAtomCount>
22

> <HydrogenBondAcceptorCount>
10

> <HydrogenBondDonorCount>
2

> <IUPACName>
disodium;2-[2-[carboxylatomethyl(carboxymethyl)amino]ethyl-(carboxymethyl)amino]acetate

> <InChI>
InChI=1S/C10H16N2O8.2Na/c13-7(14)3-11(4-8(15)16)1-2-12(5-9(17)18)6-10(19)20;;/h1-6H2,(H,13,14)(H,15,16)(H,17,18)(H,19,20);;/q;2*+1/p-2

> <InChIKey>
ZGTMUACCHSMWAC-UHFFFAOYSA-L

> <IsomericSmiles>
C(CN(CC(=O)O)CC(=O)[O-])N(CC(=O)O)CC(=O)[O-].[Na+].[Na+]

> <IsotopeAtomCount>
0

> <MeSHHeading>
Edetic Acid

> <MeSHTerm>
Edetic Acid, Disodium, Magnesium Salt
Chelaton 3
Dinitrilotetraacetate, Ethylene
EDTA, Disodium
Edetic Acid, Monosodium Salt
Disodium EDTA
EDTA, Copper
Versene
Gallium EDTA
EDTA
Edetates
Edathamil
EDTA, Potassium
Ethylene Dinitrilotetraacetate
Distannous EDTA
Tetacine, Calcium
Dinitrilotetraacetate, Disodium Ethylene
Acid, Ethylenediaminetetraacetic
Coprin
Dicobalt EDTA
Disodium Calcitetracemate
EDTA, Stannous
Edetic Acid, Calcium, Sodium Salt
Edetic Acid, Monopotassium Salt
Ethylenedinitrilotetraacetic Acid
EDTA, Magnesium Disodium
Edetic Acid, Disodium Salt
Edetate, Calcium Disodium
EDTA, Dicobalt
Edetic Acid, Calcium Salt
Disodium Ethylene Dinitrilotetraacetate
Edetate Disodium Calcium
Edetic Acid, Disodium, Monopotassium Salt
Stannous EDTA
Acid, Ethylenedinitrilotetraacetic
Edetic Acid, Chromium Salt
Edetic Acid, Disodium Salt, Dihydrate
EDTA, Distannous
Ethylenediaminetetraacetic Acid
Copper EDTA
Calcium Tetacine
EDTA, Gallium
Calcium Disodium Versenate
Disodium Versenate, Calcium
Magnesium Disodium EDTA
Edetic Acid, Magnesium Salt
N,N'-1,2-Ethanediylbis(N-(carboxymethyl)glycine)
Calcium Disodium Edetate
Edetic Acid, Potassium Salt
Versenate, Calcium Disodium
Chromium EDTA
EDTA, Chromium
Calcitetracemate, Disodium
Edetic Acid, Sodium Salt
Tetracemate
Acid, Edetic
Versenate
Edetic Acid
Ethylene Dinitrilotetraacetate, Disodium
Edetic Acid, Dipotassium Salt
Potassium EDTA

> <MolecularFormula>
C10H14N2Na2O8

> <MolecularWeight>
336.21

> <PharmAction>
Molecular Mechanisms of Pharmacological Action
Food Ingredients
Anticoagulants
Calcium Chelating Agents
Chemical Actions and Uses
Food Additives
Chelating Agents
Sequestering Agents
Therapeutic Uses
Specialty Uses of Chemicals
Hematologic Agents
Pharmacologic Actions

> <RotatableBondCount>
9

> <Smiles>
[O-]C(CN(CC(=O)[O-])CCN(CC(=O)[O-])CC(=O)[O-])=O.[Na+].[Na+].[H+].[H+]

> <SourceCategory>
Legacy Depositors
Chemical Vendors
Research and Development
Curation Efforts
Subscription Services
Journal Publishers
Governmental Organizations

> <Synonym>
Edetate disodium
EDTA disodium salt
139-33-3
Disodium edetate
Titriplex III
Edta disodium
Disodium EDTA
Disodium salt of EDTA
Chelest B
Komplexon III
Clewat N
Disodium edathamil
Zonon D
Dotite 2NA
Selekton B 2
Tetracemate disodium
Cheladrate
Mavacid ED 4
Versonol 120
Chelest 200
Disodium versene
Endrate disodium
Sodium versenate
Metaquest B
Kiresuto B
Veresene disodium salt
Chelaplex III
Complexon III
Diso-Tate
Chelaton III
Versene NA
Triplex III
Chelaton 3
Disodium versenate
Edathamil disodium
Trilon BD
Versene Na2
Disodium edta, anhydrous
Ethylenediaminetetraacetic acid disodium salt
Disodium sequestrene
Disodium tetracemate
F 1 (complexon)
Sequestrene sodium 2
Ethylenediaminetetraacetic acid, disodium salt
Disotate
Endrate
Disodium EDTA dihydrate
Perma Kleer Di Crystals
CCRIS 3658
E.D.T.A. disodique [French]
Edetic acid disodium salt
Disodium ethylenediaminetetraacetate
F 1 (VAN)
NSC 2760
EINECS 205-358-3
Disodium ethylenediamine-N,N,N',N'-tetraacetate
Dinatrium ethylendiamintetraacetat [Czech]
EDTA-Na2
EDTA disodium dihydrate
AI3-18049
Disodium dihydrogen ethylenediaminetetraacetate
Disodium edetate dihydrate
Ethylenebis(iminodiacetic acid) disodium salt
Perma kleer 50 crystals disodium salt
UNII-8NLQ36F6MM
Disodium ethylenediaminetetraacetic acid
Ethylene diamine tetraacetic acid, disodium salt
Disodium (ethylenedinitrilo)tetraacetate
Glycine, N,N'-1,2-ethanediylbis[N-(carboxymethyl)-, disodium salt
SODIUM ETHYLENEDIAMINETETRAACETATE
CBC 50152966
DR-16133
Ethylenediaminetetraacetate, disodium salt
Disodium diacid ethylenediaminetetraacetate
Disodium (ethylenedinitrilo)tetraacetic acid
6381-92-6
Trilon B
N,N'-1,2-Ethanediylbis(N-(carboxymethyl)glycine) disodium salt
Disodium dihydrogen(ethylenedinitrilo)tetraacetate
(Ethylenedinitrilo)-tetraacetic acid disodium salt
Glycine, N,N'-1,2-ethanediylbis(N-(carboxymethyl)-, disodium salt
Endrate (TN)
Na2-EDTA
Edetate disodium anhydrous
Disodium N,N'-1,2-ethanediylbis(N-(carboxymethyl)glycine)
ACETIC ACID, (ETHYLENEDINITRILO)TETRA-, DISODIUM SALT
8NLQ36F6MM
Disodium (ethylenedinitrilo)tetraacetate dihydrate
Edetate Disodium (anhydrous)
edta, disodium
Ethylenediaminetetraacetic acid disoium salt dihydrate
EDTA disodium salt (anhydrous)
CHEBI:64734
edetate disodium(usp)
MFCD00070672
ACETIC ACID, (ETHYLENEDINITRILO)TETRA-, DISODIUM SALT, DIHYDRATE
E.D.T.A. disodique
Edetate Disodium [USAN:BAN]
Glycine, N,N'-1,2-ethanediylbis(N-(carboxymethyl)-, sodium salt (1:2)
Glycine, N,N'-1,2-ethanediylbis[N-(carboxymethyl)-, sodium salt (1:2)
Dinatrium ethylendiamintetraacetat
HSDB 8013
Ethylenediaminetetraacetic acid disodium salt solution
Na2EDTA
Disodium edetate (TN)
Na2.EDTA
disodium 2-[carboxymethyl-[2-[carboxymethyl-(2-oxido-2-oxoethyl)amino]ethyl]amino]acetate
Glycine, N,N'-1,2-ethanediylbis(N-(carboxymethyl)-, disodium salt, dihydrate
EC 205-358-3
AC1L1RN1
AC1Q28UG
Edetic Acid, Disodium Salt
CHEMBL1749
C10H14N2O8.2Na
DTXSID9027073
CTK8E5804
ZGTMUACCHSMWAC-UHFFFAOYSA-L
disodium ethylenediamine-tetraacetate
C10H14N2O8.2H2O.2Na
Edetic Acid, Disodium Salt, Dihydrate
LS-2377
MCULE-3011053235
disodium 2-({2-[(carboxylatomethyl)(carboxymethyl)amino]ethyl}(carboxymethyl)amino)acetate
AN-23154
E386
LS-12111
LS-54439
ethylenediaminetetracetic acid disodium salt
TR-021937
ST24046676
ethylenediamine tetraacetic acid disodium salt
ethylenediaminetetra-acetic acid disodium salt
D03945
(Ethylenedinitrilo)tetraacetic acid disodium salt
J-007267
J-521348
Ethylenediamine-tetraacetic acid disodium salt concentrate
Ethylenediaminetetraacetic acid disodium salt concentrate
Ethylenediaminetetraacetic acid disodium salt, 0.050M Standardized solution
disodium 2-[2-[carboxylatomethyl(carboxymethyl)amino]ethyl-(carboxymethyl)amino]acetate
Ethylenediaminetetraacetic acid disodium salt, 0.100N (0.050M) Standardized solution
Ethylenediaminetetraacetic acid disodium salt, 0.115N (0.0575M) Standardized solution
Ethylenediaminetetraacetic acid disodium salt, 0.200N (0.1M) Standardized solution

> <TPSA>
161

> <TotalAidCount>
5

> <TotalFormalCharge>
0

> <database>
PubChem Compound

> <matchingCount>
176

> <primaryID>
8759

> <queryTranslation>
7628[CompoundID] OR 244[CompoundID] OR 25059[CompoundID] OR 7618[CompoundID] OR 7641[CompoundID] OR 5053[CompoundID] OR 637511[CompoundID] OR 7714[CompoundID] OR 7762[CompoundID] OR 25429[CompoundID]
OR 8842[CompoundID] OR 7794[CompoundID] OR 637566[CompoundID] OR 7843[CompoundID] OR 174[CompoundID] OR 7870[CompoundID] OR 86102[CompoundID] OR 7888[CompoundID] OR 7896[CompoundID] OR 1140[CompoundID
] OR 8042[CompoundID] OR 8058[CompoundID] OR 8078[CompoundID] OR 8087[CompoundID] OR 8117[CompoundID] OR 8133[CompoundID] OR 115224[CompoundID] OR 8175[CompoundID] OR 8194[CompoundID] OR 445639[Compou
ndID] OR 4944[CompoundID] OR 8294[CompoundID] OR 93541[CompoundID] OR 8360[CompoundID] OR 8363[CompoundID] OR 656612[CompoundID] OR 125098[CompoundID] OR 3352[CompoundID] OR 3303913[CompoundID] OR 648
05[CompoundID] OR 31200[CompoundID] OR 1712058[CompoundID] OR 31236[CompoundID] OR 31239[CompoundID] OR 31265[CompoundID] OR 31266[CompoundID] OR 31276[CompoundID] OR 6950273[CompoundID] OR 518659[Com
poundID] OR 14896[CompoundID] OR 14798[CompoundID] OR 14829[CompoundID] OR 14830[CompoundID] OR 8635[CompoundID] OR 23266[CompoundID] OR 4284[CompoundID] OR 8693[CompoundID] OR 22311[CompoundID] OR 87
59[CompoundID] OR 8785[CompoundID] OR 2723810[CompoundID] OR 8857[CompoundID] OR 3893[CompoundID] OR 9936739[CompoundID] OR 516892[CompoundID] OR 5430[CompoundID] OR 9017[CompoundID] OR 15433[Compound
ID] OR 107720[CompoundID] OR 9552081[CompoundID] OR 164825[CompoundID] OR 10275455[CompoundID] OR 16666[CompoundID] OR 9839306[CompoundID] OR 5282227[CompoundID] OR 23676745[CompoundID] OR 32881[Compo
undID] OR 91581[CompoundID] OR 39800[CompoundID] OR 33344[CompoundID] OR 15962220[CompoundID] OR 33528[CompoundID] OR 5365075[CompoundID] OR 62829[CompoundID] OR 162381[CompoundID] OR 517202[CompoundI
D] OR 6433353[CompoundID] OR 2730[CompoundID] OR 5372405[CompoundID] OR 36081[CompoundID] OR 3120[CompoundID] OR 3017[CompoundID] OR 2969[CompoundID] OR 18827[CompoundID] OR 19518[CompoundID] OR 19658
[CompoundID] OR 38283[CompoundID] OR 2758[CompoundID] OR 10112[CompoundID] OR 10340[CompoundID] OR 712[CompoundID] OR 5794[CompoundID] OR 3347[CompoundID] OR 104150[CompoundID] OR 2912[CompoundID] OR
2450[CompoundID] OR 40326[CompoundID] OR 40585[CompoundID] OR 517055[CompoundID] OR 10913[CompoundID] OR 108242[CompoundID] OR 62097[CompoundID] OR 41679[CompoundID] OR 54680676[CompoundID] OR 62118[C
ompoundID] OR 753[CompoundID] OR 1030[CompoundID] OR 23673837[CompoundID] OR 54678504[CompoundID] OR 11442[CompoundID] OR 11463[CompoundID] OR 22230[CompoundID] OR 440917[CompoundID] OR 6054[CompoundI
D] OR 43234[CompoundID] OR 22629[CompoundID] OR 3039[CompoundID] OR 2735067[CompoundID] OR 6144[CompoundID] OR 702[CompoundID] OR 284[CompoundID] OR 176[CompoundID] OR 91688[CompoundID] OR 22947[Compo
undID] OR 47445[CompoundID] OR 1711973[CompoundID] OR 243[CompoundID] OR 10342051[CompoundID] OR 5281875[CompoundID] OR 3776[CompoundID] OR 6224[CompoundID] OR 104926[CompoundID] OR 8755[CompoundID] O
R 338[CompoundID] OR 123622[CompoundID] OR 23954[CompoundID] OR 6334[CompoundID] OR 2537[CompoundID] OR 24261[CompoundID] OR 23665760[CompoundID] OR 83975[CompoundID] OR 784[CompoundID] OR 24437[Compo
undID] OR 5360315[CompoundID] OR 311[CompoundID] OR 6549[CompoundID] OR 107689[CompoundID] OR 17100[CompoundID] OR 24976875[CompoundID] OR 6654[CompoundID] OR 71245[CompoundID] OR 6442842[CompoundID]
OR 62334[CompoundID] OR 54698175[CompoundID] OR 6328154[CompoundID] OR 24762[CompoundID] OR 440950[CompoundID] OR 7017[CompoundID] OR 5281873[CompoundID] OR 323[CompoundID] OR 5281167[CompoundID] OR 7
175[CompoundID] OR 7292[CompoundID] OR 6335613[CompoundID] OR 7456[CompoundID] OR 7462[CompoundID]

> <resultIndex>
109

> <resultRange>
1-176

> <textQuery>
7628,244,25059,7618,7641,5053,637511,7714,7762,25429,8842,7794,637566,7843,174,7870,86102,7888,7896,1140,8042,8058,8078,8087,8117,8133,115224,8175,8194,445639,4944,8294,93541,8360,8363,656612,125098,3
352,3303913,64805,31200,1712058,31236,31239,31265,31266,31276,6950273,518659,14896,14798,14829,14830,8635,23266,4284,8693,22311,8759,8785,2723810,8857,3893,9936739,516892,5430,9017,15433,107720,955208
1,164825,10275455,16666,9839306,5282227,23676745,32881,91581,39800,33344,15962220,33528,5365075,62829,162381,517202,6433353,2730,5372405,36081,3120,3017,2969,18827,19518,19658,38283,2758,10112,10340,7
12,5794,3347,104150,2912,2450,40326,40585,517055,10913,108242,62097,41679,54680676,62118,753,1030,23673837,54678504,11442,11463,22230,440917,6054,43234,22629,3039,2735067,6144,702,284,176,91688,22947,
47445,1711973,243,10342051,5281875,3776,6224,104926,8755,338,123622,23954,6334,2537,24261,23665760,83975,784,24437,5360315,311,6549,107689,17100,24976875,6654,71245,6442842,62334,54698175,6328154,2476
2,440950,7017,5281873,323,5281167,7175,7292,6335613,7456,7462

$$$$
8,755
  SciTegic10191915303D

 66 66  0  0  0  0            999 V2000
    5.5180   10.3650    3.2050 C   0  0
    5.0330    9.4510    2.0800 C   0  0
    4.3540    8.1860    2.6000 C   0  0
    3.8690    7.2700    1.4750 C   0  0
    3.1890    6.0040    1.9940 C   0  0
    2.7050    5.0900    0.8690 C   0  0
    2.0230    3.8220    1.3890 C   0  0
    1.5390    2.9080    0.2640 C   0  0
    0.8590    1.6430    0.7830 C   0  0
    0.3750    0.7290   -0.3420 C   0  0
   -0.3070   -0.5390    0.1780 C   0  0
   -0.7910   -1.4530   -0.9470 C   0  0
   -1.4710   -2.7210   -0.4280 C   0  0
   -1.9550   -3.6350   -1.5530 C   0  0
   -2.6130   -4.9120   -1.0330 N   0  3
   -3.9080   -4.6410   -0.2680 C   0  0
   -1.6430   -5.8010   -0.2540 C   0  0
   -2.8630   -5.4180   -2.4530 C   0  0
   -3.5590   -6.7310   -2.4530 C   0  0
   -4.9650   -6.7830   -2.4530 C   0  0
   -5.6210   -8.0260   -2.4530 C   0  0
   -4.8750   -9.2170   -2.4530 C   0  0
   -3.4710   -9.1640   -2.4530 C   0  0
   -2.8130   -7.9240   -2.4530 C   0  0
    6.0060   11.2520    2.7990 H   0  0
    4.6860   10.6760    3.8360 H   0  0
    6.2400    9.8500    3.8380 H   0  0
    5.8540    9.1990    1.4080 H   0  0
    4.3750    9.9920    1.4000 H   0  0
    3.5330    8.4380    3.2720 H   0  0
    5.0140    7.6450    3.2790 H   0  0
    4.6890    7.0200    0.8030 H   0  0
    3.2090    7.8110    0.7950 H   0  0
    2.3670    6.2560    2.6660 H   0  0
    3.8480    5.4630    2.6740 H   0  0
    3.5250    4.8380    0.1970 H   0  0
    2.0450    5.6310    0.1900 H   0  0
    1.2030    4.0740    2.0610 H   0  0
    2.6840    3.2830    2.0680 H   0  0
    2.3590    2.6560   -0.4080 H   0  0
    0.8810    3.4490   -0.4160 H   0  0
    0.0390    1.8950    1.4550 H   0  0
    1.5180    1.1020    1.4630 H   0  0
    1.1950    0.4770   -1.0140 H   0  0
   -0.2850    1.2680   -1.0210 H   0  0
   -1.1270   -0.2870    0.8500 H   0  0
    0.3530   -1.0800    0.8570 H   0  0
    0.0310   -1.7050   -1.6190 H   0  0
   -1.4490   -0.9120   -1.6270 H   0  0
   -2.2910   -2.4690    0.2440 H   0  0
   -0.8110   -3.2600    0.2520 H   0  0
   -1.1370   -3.8710   -2.2340 H   0  0
   -2.6290   -3.1000   -2.2230 H   0  0
   -3.7190   -4.1560    0.6910 H   0  0
   -4.4420   -5.5700   -0.0700 H   0  0
   -4.5670   -3.9920   -0.8440 H   0  0
   -1.3630   -5.3580    0.7030 H   0  0
   -0.7270   -5.9650   -0.8240 H   0  0
   -2.0880   -6.7750   -0.0530 H   0  0
   -1.9260   -5.5040   -3.0040 H   0  0
   -3.4490   -4.6950   -3.0210 H   0  0
   -5.5430   -5.8710   -2.4530 H   0  0
   -6.7010   -8.0650   -2.4530 H   0  0
   -5.3810  -10.1700   -2.4530 H   0  0
   -2.8970  -10.0800   -2.4530 H   0  0
   -1.7330   -7.8910   -2.4530 H   0  0
  1  2  1  0
  2  3  1  0
  3  4  1  0
  4  5  1  0
  5  6  1  0
  6  7  1  0
  7  8  1  0
  8  9  1  0
  9 10  1  0
 10 11  1  0
 11 12  1  0
 12 13  1  0
 13 14  1  0
 14 15  1  0
 15 16  1  0
 15 17  1  0
 15 18  1  0
 18 19  1  0
 19 20  2  0
 19 24  1  0
 20 21  1  0
 21 22  2  0
 22 23  1  0
 23 24  2  0
  1 25  1  0
  1 26  1  0
  1 27  1  0
  2 28  1  0
  2 29  1  0
  3 30  1  0
  3 31  1  0
  4 32  1  0
  4 33  1  0
  5 34  1  0
  5 35  1  0
  6 36  1  0
  6 37  1  0
  7 38  1  0
  7 39  1  0
  8 40  1  0
  8 41  1  0
  9 42  1  0
  9 43  1  0
 10 44  1  0
 10 45  1  0
 11 46  1  0
 11 47  1  0
 12 48  1  0
 12 49  1  0
 13 50  1  0
 13 51  1  0
 14 52  1  0
 14 53  1  0
 16 54  1  0
 16 55  1  0
 16 56  1  0
 17 57  1  0
 17 58  1  0
 17 59  1  0
 18 60  1  0
 18 61  1  0
 20 62  1  0
 21 63  1  0
 22 64  1  0
 23 65  1  0
 24 66  1  0
M  CHG  1  15   1
M  END
> <Name>
8,755

> <OBJECTID>
9223372496419618827

> <ActiveAidCount>
97

> <AtomChiralCount>
0

> <AtomChiralDefCount>
0

> <AtomChiralUndefCount>
0

> <BondChiralCount>
0

> <BondChiralDefCount>
0

> <BondChiralUndefCount>
0

> <CID>
8755

> <CanonicalSmiles>
CCCCCCCCCCCCCC[N+](C)(C)CC1=CC=CC=C1.[Cl-]

> <Complexity>
265

> <CovalentUnitCount>
2

> <CreateDate>
2005/08/08 00:00

> <HeavyAtomCount>
25

> <HydrogenBondAcceptorCount>
1

> <HydrogenBondDonorCount>
0

> <IUPACName>
benzyl-dimethyl-tetradecylazanium;chloride

> <InChI>
InChI=1S/C23H42N.ClH/c1-4-5-6-7-8-9-10-11-12-13-14-18-21-24(2,3)22-23-19-16-15-17-20-23;/h15-17,19-20H,4-14,18,21-22H2,1-3H3;1H/q+1;/p-1

> <InChIKey>
OCBHHZMJRVXXQK-UHFFFAOYSA-M

> <IsomericSmiles>
CCCCCCCCCCCCCC[N+](C)(C)CC1=CC=CC=C1.[Cl-]

> <IsotopeAtomCount>
0

> <MeSHHeading>
zephiramine

> <MeSHTerm>
zephiramine
zephiramine dimethylcarbamodithioate
zephiramine dichlorotriphenylstannate (1-)
zephiramine, (TB-5-11)-dichlorotricyclohexylstannate (1-)
zephiramine tetrachloromethylstannate (1-)
zephiramine chloroiodoiodate (1-)
zephiramine trichlorodimethylstannate (1-)
zephiramine chloride
zephiramine bromide
benzyldimethyltetradecylammonium chloride
zephiramine fluoride
BDTA
tetradecyldimethylbenzylammonium fluoride
zephiramine, (OC-6-21)-pentachloromethylstannate (2-) (2:1)
zephiramine iodide
zephiramine tetrachlorodimethylstannate (2-) (2:1)
tetradecyldimethylbenzammonium chloride
BZK-C14
zephiramine alginate

> <MolecularFormula>
C23H42ClN

> <MolecularWeight>
368

> <RotatableBondCount>
15

> <Smiles>
CCCCCCCCCCCCCC[N+](Cc1ccccc1)(C)C.[Cl-]

> <SourceCategory>
Chemical Vendors
Legacy Depositors
Research and Development
Curation Efforts
Subscription Services
Journal Publishers
Governmental Organizations

> <Synonym>
139-08-2
n-benzyl-n,n-dimethyltetradecan-1-aminium chloride
Miristalkonium chloride
Benzyldimethyltetradecylammonium chloride
Tetradecyldimethylbenzylammonium Chloride
Zephiramine
Myristalkonium chloride
Dibactol
Faringets
68391-01-5
Quaternario 14B
Sanibond 200lg
Zephiramine chloride
Barquat MB 50
Quarton 14 BCL
Barquat MS 100
Hyamine 3500
Arquad DM14B-90
Cloruro de miristalkonio
Chlorur de miristalkonium
Nissan cation M2-100
68424-85-1
Benzyldimethylmyristylammonium chloride
Dimethylbenzylmyristylammonium chloride
Myristyldimethylbenzylammonium chloride
UNII-0W255OL75T
Dimethylbenzyltetradecylammonium chloride
Tetradecyl-dimethyl-benzylammonium chloride
HSDB 5627
Tetradecyl dimethyl benzyl ammonium chloride
Miristalkonium chloride [INN:BAN]
Benzenemethanaminium, N,N-dimethyl-N-tetradecyl-, chloride
BTC 824P100
EINECS 205-352-0
Miristalkonii chloridum [INN-Latin]
MFCD00011771
Chlorur de miristalkonium [INN-French]
Cloruro de miristalkonio [INN-Spanish]
Quaternary ammonium compounds, benzyl-C12-16-alkyldimethyl, chlorides
Quaternary ammonium compounds, benzyl-C12-18-alkyldimethyl, chlorides
Myristyl dimethyl benzyl ammonium chloride
Trimethyl tetradecylphenyl ammonium chloride
Ammonium, benzyldimethyltetradecyl-, chloride
N-Benzyl-N-tetradecyldimethylammonium chloride
TETRADECYLBENZYLDIMETHYLAMMONIUM CHLORIDE
0W255OL75T
Myristylbenzyldimethylammonium chloride
Benzyltetradecyldimethylammonium chloride
benzyl-dimethyl-tetradecylazanium chloride
DSSTox_CID_8460
W-109496
N,N-Dimethyl-N-tetradecylbenzenemethanaminium chloride
Benzenemethanaminium, N,N-dimethyl-N-tetradecyl-, chloride (1:1)
Protek Q
Rolquat cdm/BC
Black alg aetrine
benzyl-dimethyl-tetradecylazanium;chloride
Catigene T80
Bioquat 80
benzyl-dimethyl-tetradecyl-ammonium chloride
Cyncal 80
Barquat MB 80
Bioquat 501
Gardiquat 1250AF
Miristalkonii chloridum
Maquat MC 1412
Tret-O-lite WF 88
Tret-O-lite WF 828
Zephiran chloride
C12-18-Alkyldimethylbenzyl ammonium chlorides
BTC 835
BENZYLDIMETHYLTETRADECYLAMMONIUM CHLORIDE HYDRATE
Alpagelle (TN)
EINECS 269-919-4
EINECS 270-325-2
Maristalkonii chloridum
SDA 16-052-00
AC1L1RMP
AC1LC3SS
AC1Q1RWO
C12-16-Alkyldimethylbenzylammonium chloride
Alkyl(C12-16)dimethylbenzylammonium chloride
(C12-C18)Alkylbenzyldimethylammonium chloride
(C12-C18)Alkyldimethylbenzylammonium chloride
Alkyl(C12-C18)benzyldimethylammonium chloride
EC 270-325-2
C23H42ClN
Benzyl-C12-C16-alkyldimethyl ammonium chlorides
DSSTox_RID_78652
Zephirol Related Compound 1
(C12-C18) Alkyldimethylbenzyl ammonium chloride
DSSTox_GSID_28460
DSSTox_GSID_28492
SCHEMBL60915
KSC177I3T
Ammonium, alkyl(C12-C16)dimethylbenzyl-, chlorides
Miristalkonium chloride (INN)
CHEMBL421049
N-Alkyl dimethyl benzyl ammonium chloride (C12-C18)
DTXSID6036384
CTK0H7439
KS-00000FQS
OCBHHZMJRVXXQK-UHFFFAOYSA-M
Alkyl(40%C12,50%C14,10%C16) dimethyl benzyl ammonium chloride
Tox21_202570
Tox21_303955
ANW-20492
Quaternary ammonium compounds, benzyl-C12-C16-alkyldimethyl, chlorides
AKOS015890487
benzyldimethyltetradecylazanium chloride
RTR-005141
TRA0024970
NCGC00260119-01
NCGC00357189-01
tetradecyldimethylbenzyl ammonium chloride
AK105041
AN-38084
AN-38107
AN-43830
LS-16820
AX8116285
CAS-68391-01-5
CAS-68424-85-1
TR-005141
A0208
FT-0621977
FT-0657918
D08223
Alkyl (C12-16) dimethylbenzylammonium chloride
TETRADECYLBENZYLDIMETHYL-AMMONIUM CHLORIDE
A807480
Benzenemethanaminium,N,N-dimethyl-N-tetradecyl-,ch
Benzyldimethyltetradecylammonium chloride, anhydrous
dimethyl-(phenylmethyl)-tetradecyl-azanium chloride
dimethyl-(phenylmethyl)-tetradecylammonium chloride
n-Tetradecylbenzyldimethylammonium chloride hydrate
TETRADECYL DIMETHYLBENZYL AMMONIUM CHLORIDE
Benzyldimethyl-n-tetradecylammonium chloride hydrate
I01-6449
N-Benzyl-N,N-dimethyl-1-tetradecanaminium chloride
UNII-F5UM2KM3W7 component OCBHHZMJRVXXQK-UHFFFAOYSA-M
Alkyl(5%C12,60%C14,30%C16,5%C18) dimethyl benzyl ammonium chloride
E(R)EAIe>>u paragraph signthorn(1/4)x>>uUEth>>uAE>> i section sign

> <TPSA>
0

> <TotalAidCount>
219

> <TotalFormalCharge>
0

> <database>
PubChem Compound

> <matchingCount>
176

> <primaryID>
8755

> <queryTranslation>
7628[CompoundID] OR 244[CompoundID] OR 25059[CompoundID] OR 7618[CompoundID] OR 7641[CompoundID] OR 5053[CompoundID] OR 637511[CompoundID] OR 7714[CompoundID] OR 7762[CompoundID] OR 25429[CompoundID]
OR 8842[CompoundID] OR 7794[CompoundID] OR 637566[CompoundID] OR 7843[CompoundID] OR 174[CompoundID] OR 7870[CompoundID] OR 86102[CompoundID] OR 7888[CompoundID] OR 7896[CompoundID] OR 1140[CompoundID
] OR 8042[CompoundID] OR 8058[CompoundID] OR 8078[CompoundID] OR 8087[CompoundID] OR 8117[CompoundID] OR 8133[CompoundID] OR 115224[CompoundID] OR 8175[CompoundID] OR 8194[CompoundID] OR 445639[Compou
ndID] OR 4944[CompoundID] OR 8294[CompoundID] OR 93541[CompoundID] OR 8360[CompoundID] OR 8363[CompoundID] OR 656612[CompoundID] OR 125098[CompoundID] OR 3352[CompoundID] OR 3303913[CompoundID] OR 648
05[CompoundID] OR 31200[CompoundID] OR 1712058[CompoundID] OR 31236[CompoundID] OR 31239[CompoundID] OR 31265[CompoundID] OR 31266[CompoundID] OR 31276[CompoundID] OR 6950273[CompoundID] OR 518659[Com
poundID] OR 14896[CompoundID] OR 14798[CompoundID] OR 14829[CompoundID] OR 14830[CompoundID] OR 8635[CompoundID] OR 23266[CompoundID] OR 4284[CompoundID] OR 8693[CompoundID] OR 22311[CompoundID] OR 87
59[CompoundID] OR 8785[CompoundID] OR 2723810[CompoundID] OR 8857[CompoundID] OR 3893[CompoundID] OR 9936739[CompoundID] OR 516892[CompoundID] OR 5430[CompoundID] OR 9017[CompoundID] OR 15433[Compound
ID] OR 107720[CompoundID] OR 9552081[CompoundID] OR 164825[CompoundID] OR 10275455[CompoundID] OR 16666[CompoundID] OR 9839306[CompoundID] OR 5282227[CompoundID] OR 23676745[CompoundID] OR 32881[Compo
undID] OR 91581[CompoundID] OR 39800[CompoundID] OR 33344[CompoundID] OR 15962220[CompoundID] OR 33528[CompoundID] OR 5365075[CompoundID] OR 62829[CompoundID] OR 162381[CompoundID] OR 517202[CompoundI
D] OR 6433353[CompoundID] OR 2730[CompoundID] OR 5372405[CompoundID] OR 36081[CompoundID] OR 3120[CompoundID] OR 3017[CompoundID] OR 2969[CompoundID] OR 18827[CompoundID] OR 19518[CompoundID] OR 19658
[CompoundID] OR 38283[CompoundID] OR 2758[CompoundID] OR 10112[CompoundID] OR 10340[CompoundID] OR 712[CompoundID] OR 5794[CompoundID] OR 3347[CompoundID] OR 104150[CompoundID] OR 2912[CompoundID] OR
2450[CompoundID] OR 40326[CompoundID] OR 40585[CompoundID] OR 517055[CompoundID] OR 10913[CompoundID] OR 108242[CompoundID] OR 62097[CompoundID] OR 41679[CompoundID] OR 54680676[CompoundID] OR 62118[C
ompoundID] OR 753[CompoundID] OR 1030[CompoundID] OR 23673837[CompoundID] OR 54678504[CompoundID] OR 11442[CompoundID] OR 11463[CompoundID] OR 22230[CompoundID] OR 440917[CompoundID] OR 6054[CompoundI
D] OR 43234[CompoundID] OR 22629[CompoundID] OR 3039[CompoundID] OR 2735067[CompoundID] OR 6144[CompoundID] OR 702[CompoundID] OR 284[CompoundID] OR 176[CompoundID] OR 91688[CompoundID] OR 22947[Compo
undID] OR 47445[CompoundID] OR 1711973[CompoundID] OR 243[CompoundID] OR 10342051[CompoundID] OR 5281875[CompoundID] OR 3776[CompoundID] OR 6224[CompoundID] OR 104926[CompoundID] OR 8755[CompoundID] O
R 338[CompoundID] OR 123622[CompoundID] OR 23954[CompoundID] OR 6334[CompoundID] OR 2537[CompoundID] OR 24261[CompoundID] OR 23665760[CompoundID] OR 83975[CompoundID] OR 784[CompoundID] OR 24437[Compo
undID] OR 5360315[CompoundID] OR 311[CompoundID] OR 6549[CompoundID] OR 107689[CompoundID] OR 17100[CompoundID] OR 24976875[CompoundID] OR 6654[CompoundID] OR 71245[CompoundID] OR 6442842[CompoundID]
OR 62334[CompoundID] OR 54698175[CompoundID] OR 6328154[CompoundID] OR 24762[CompoundID] OR 440950[CompoundID] OR 7017[CompoundID] OR 5281873[CompoundID] OR 323[CompoundID] OR 5281167[CompoundID] OR 7
175[CompoundID] OR 7292[CompoundID] OR 6335613[CompoundID] OR 7456[CompoundID] OR 7462[CompoundID]

> <resultIndex>
110

> <resultRange>
1-176

> <textQuery>
7628,244,25059,7618,7641,5053,637511,7714,7762,25429,8842,7794,637566,7843,174,7870,86102,7888,7896,1140,8042,8058,8078,8087,8117,8133,115224,8175,8194,445639,4944,8294,93541,8360,8363,656612,125098,3
352,3303913,64805,31200,1712058,31236,31239,31265,31266,31276,6950273,518659,14896,14798,14829,14830,8635,23266,4284,8693,22311,8759,8785,2723810,8857,3893,9936739,516892,5430,9017,15433,107720,955208
1,164825,10275455,16666,9839306,5282227,23676745,32881,91581,39800,33344,15962220,33528,5365075,62829,162381,517202,6433353,2730,5372405,36081,3120,3017,2969,18827,19518,19658,38283,2758,10112,10340,7
12,5794,3347,104150,2912,2450,40326,40585,517055,10913,108242,62097,41679,54680676,62118,753,1030,23673837,54678504,11442,11463,22230,440917,6054,43234,22629,3039,2735067,6144,702,284,176,91688,22947,
47445,1711973,243,10342051,5281875,3776,6224,104926,8755,338,123622,23954,6334,2537,24261,23665760,83975,784,24437,5360315,311,6549,107689,17100,24976875,6654,71245,6442842,62334,54698175,6328154,2476
2,440950,7017,5281873,323,5281167,7175,7292,6335613,7456,7462

$$$$
8,693
  SciTegic10191915303D

 35 35  0  0  0  0            999 V2000
    5.4400    5.0000    0.0000 C   0  0
    4.7360    3.6430    0.0000 C   0  0
    3.2130    3.7680    0.0000 C   0  0
    2.6310    2.4730    0.0000 O   0  0
    1.3010    2.5140    0.0000 C   0  0
    0.6230    1.1840    0.0000 C   0  0
    1.3810    0.0000    0.0000 C   0  0
    0.7090   -1.2360    0.0000 C   0  0
   -0.6990   -1.2580    0.0000 C   0  0
   -1.4200   -2.5650    0.0000 C   0  0
   -0.8120   -3.6100    0.0000 O   0  0
   -2.7480   -2.4810    0.0000 O   0  0
   -3.3710   -3.7560    0.0000 C   0  0
   -4.8910   -3.5820    0.0000 C   0  0
   -5.6370   -4.9160    0.0000 C   0  0
   -1.4260   -0.1020    0.0000 N   0  0
   -0.7830    1.1030    0.0000 C   0  0
    0.6600    3.5390    0.0000 O   0  0
    5.1580    5.5800    0.8790 H   0  0
    6.5240    4.8710   -0.0100 H   0  0
    5.1640    5.5760   -0.8830 H   0  0
    5.0720    3.0330    0.8400 H   0  0
    5.0720    3.0330   -0.8400 H   0  0
    2.8690    4.2970   -0.8910 H   0  0
    2.8690    4.2970    0.8890 H   0  0
    2.4610    0.0310    0.0000 H   0  0
    1.2750   -2.1560    0.0000 H   0  0
   -3.0450   -4.2950    0.8910 H   0  0
   -3.0450   -4.2950   -0.8890 H   0  0
   -5.2070   -2.9630   -0.8400 H   0  0
   -5.2070   -2.9630    0.8400 H   0  0
   -5.3930   -5.5180   -0.8750 H   0  0
   -6.7150   -4.7540    0.0020 H   0  0
   -5.3870   -5.4980    0.8870 H   0  0
   -1.3750    2.0080    0.0000 H   0  0
  1  2  1  0
  2  3  1  0
  3  4  1  0
  4  5  1  0
  5  6  1  0
  5 18  2  0
  6  7  2  0
  6 17  1  0
  7  8  1  0
  8  9  2  0
  9 10  1  0
  9 16  1  0
 10 11  2  0
 10 12  1  0
 12 13  1  0
 13 14  1  0
 14 15  1  0
 16 17  2  0
  1 19  1  0
  1 20  1  0
  1 21  1  0
  2 22  1  0
  2 23  1  0
  3 24  1  0
  3 25  1  0
  7 26  1  0
  8 27  1  0
 13 28  1  0
 13 29  1  0
 14 30  1  0
 14 31  1  0
 15 32  1  0
 15 33  1  0
 15 34  1  0
 17 35  1  0
M  END
> <Name>
8,693

> <OBJECTID>
9223372500714586123

> <ActiveAidCount>
3

> <AtomChiralCount>
0

> <AtomChiralDefCount>
0

> <AtomChiralUndefCount>
0

> <BondChiralCount>
0

> <BondChiralDefCount>
0

> <BondChiralUndefCount>
0

> <CID>
8693

> <CanonicalSmiles>
CCCOC(=O)C1=CN=C(C=C1)C(=O)OCCC

> <Complexity>
280

> <CovalentUnitCount>
1

> <CreateDate>
2005/03/26 00:00

> <HeavyAtomCount>
18

> <HydrogenBondAcceptorCount>
5

> <HydrogenBondDonorCount>
0

> <IUPACName>
dipropyl pyridine-2,5-dicarboxylate

> <InChI>
InChI=1S/C13H17NO4/c1-3-7-17-12(15)10-5-6-11(14-9-10)13(16)18-8-4-2/h5-6,9H,3-4,7-8H2,1-2H3

> <InChIKey>
IITCWRFYJWUUPC-UHFFFAOYSA-N

> <IsomericSmiles>
CCCOC(=O)C1=CN=C(C=C1)C(=O)OCCC

> <IsotopeAtomCount>
0

> <MolecularFormula>
C13H17NO4

> <MolecularWeight>
251.28

> <RotatableBondCount>
8

> <Smiles>
CCCOC(=O)c1cnc(C(OCCC)=O)cc1

> <SourceCategory>
Chemical Vendors
Legacy Depositors
Curation Efforts
Governmental Organizations
Subscription Services
Journal Publishers
Research and Development
NIH Initiatives

> <Synonym>
Dipropyl 2,5-pyridinedicarboxylate
DIPROPYL PYRIDINE-2,5-DICARBOXYLATE
Dipropyl isocinchomeronate
136-45-8
MGK 326
Di-propylisocinchomeronate
Repper 333
MGK Repellent 326
Di-n-propyl isocinchomeronate
2,5-Pyridinedicarboxylic acid, dipropyl ester
MGK R-326
Caswell No. 400
Isocinchomeronic acid, dipropyl ester
R-326
Di-n-propyl 2,5-pyridinedicarboxylate
UNII-O572Q51ABJ
ENT 17595
NSC 22364
Di-N-propyl-isocinchomeronate
MGK Repellent 326 (VAN)
Pyridin-2,5-dicarbonsaeure-di-N-propylester
EINECS 205-245-9
Di-n-propyl-isocinchomeronate [German]
EPA Pesticide Chemical Code 047201
BRN 0229600
AI3-17591
O572Q51ABJ
Dipropylester kyseliny pyridin-2,5-dikarboxylove
Pyridin-2,5-dicarbonsaeure-di-n-propylester [German]
Dipropylester kyseliny pyridin-2,5-dikarboxylove [Czech]
2, dipropyl ester
Dipropylisocinchomeronate
AC1L1RIP
ACMC-209c5y
DSSTox_CID_12544
DSSTox_RID_78975
DSSTox_GSID_32544
Isocinchomeronyl dipropylester
4-22-00-01633 (Beilstein Handbook Reference)
SCHEMBL338813
WLN: T6NJ BVO3 EVO3
CHEMBL1899338
DTXSID8032544
CTK8B0472
HSDB 6947
IITCWRFYJWUUPC-UHFFFAOYSA-
Dipropyl2,5-Pyridinedicarboxylate
IITCWRFYJWUUPC-UHFFFAOYSA-N
KS-000012CD
NSC22364
ZINC1589977
Isocinchomeronic Acid Dipropyl Ester
Tox21_300729
ANW-20036
MFCD00055315
NSC-22364
AKOS015913878
NCGC00168289-01
NCGC00168289-02
NCGC00254635-01
AN-23119
CAS-136-45-8
LS-131357
TC-108781
2,5-Pyridinedicarboxylic Acid Dipropyl Ester
P0835
MGK 326, PESTANAL(R), analytical standard
Pyridine-2,5-dicarboxylic acid, dipropyl ester
2,5-Pyridinedicarboxylicacid,2,5-dipropyl ester
J-006849
I14-44491
2,5-PYRIDINEDICARBOXYLIC ACID DI-N-PROPYL ESTER
InChI=1/C13H17NO4/c1-3-7-17-12(15)10-5-6-11(14-9-10)13(16)18-8-4-2/h5-6,9H,3-4,7-8H2,1-2H3

> <TPSA>
65.5

> <TotalAidCount>
238

> <TotalFormalCharge>
0

> <XLogP>
2.7

> <database>
PubChem Compound

> <matchingCount>
176

> <primaryID>
8693

> <queryTranslation>
7628[CompoundID] OR 244[CompoundID] OR 25059[CompoundID] OR 7618[CompoundID] OR 7641[CompoundID] OR 5053[CompoundID] OR 637511[CompoundID] OR 7714[CompoundID] OR 7762[CompoundID] OR 25429[CompoundID]
OR 8842[CompoundID] OR 7794[CompoundID] OR 637566[CompoundID] OR 7843[CompoundID] OR 174[CompoundID] OR 7870[CompoundID] OR 86102[CompoundID] OR 7888[CompoundID] OR 7896[CompoundID] OR 1140[CompoundID
] OR 8042[CompoundID] OR 8058[CompoundID] OR 8078[CompoundID] OR 8087[CompoundID] OR 8117[CompoundID] OR 8133[CompoundID] OR 115224[CompoundID] OR 8175[CompoundID] OR 8194[CompoundID] OR 445639[Compou
ndID] OR 4944[CompoundID] OR 8294[CompoundID] OR 93541[CompoundID] OR 8360[CompoundID] OR 8363[CompoundID] OR 656612[CompoundID] OR 125098[CompoundID] OR 3352[CompoundID] OR 3303913[CompoundID] OR 648
05[CompoundID] OR 31200[CompoundID] OR 1712058[CompoundID] OR 31236[CompoundID] OR 31239[CompoundID] OR 31265[CompoundID] OR 31266[CompoundID] OR 31276[CompoundID] OR 6950273[CompoundID] OR 518659[Com
poundID] OR 14896[CompoundID] OR 14798[CompoundID] OR 14829[CompoundID] OR 14830[CompoundID] OR 8635[CompoundID] OR 23266[CompoundID] OR 4284[CompoundID] OR 8693[CompoundID] OR 22311[CompoundID] OR 87
59[CompoundID] OR 8785[CompoundID] OR 2723810[CompoundID] OR 8857[CompoundID] OR 3893[CompoundID] OR 9936739[CompoundID] OR 516892[CompoundID] OR 5430[CompoundID] OR 9017[CompoundID] OR 15433[Compound
ID] OR 107720[CompoundID] OR 9552081[CompoundID] OR 164825[CompoundID] OR 10275455[CompoundID] OR 16666[CompoundID] OR 9839306[CompoundID] OR 5282227[CompoundID] OR 23676745[CompoundID] OR 32881[Compo
undID] OR 91581[CompoundID] OR 39800[CompoundID] OR 33344[CompoundID] OR 15962220[CompoundID] OR 33528[CompoundID] OR 5365075[CompoundID] OR 62829[CompoundID] OR 162381[CompoundID] OR 517202[CompoundI
D] OR 6433353[CompoundID] OR 2730[CompoundID] OR 5372405[CompoundID] OR 36081[CompoundID] OR 3120[CompoundID] OR 3017[CompoundID] OR 2969[CompoundID] OR 18827[CompoundID] OR 19518[CompoundID] OR 19658
[CompoundID] OR 38283[CompoundID] OR 2758[CompoundID] OR 10112[CompoundID] OR 10340[CompoundID] OR 712[CompoundID] OR 5794[CompoundID] OR 3347[CompoundID] OR 104150[CompoundID] OR 2912[CompoundID] OR
2450[CompoundID] OR 40326[CompoundID] OR 40585[CompoundID] OR 517055[CompoundID] OR 10913[CompoundID] OR 108242[CompoundID] OR 62097[CompoundID] OR 41679[CompoundID] OR 54680676[CompoundID] OR 62118[C
ompoundID] OR 753[CompoundID] OR 1030[CompoundID] OR 23673837[CompoundID] OR 54678504[CompoundID] OR 11442[CompoundID] OR 11463[CompoundID] OR 22230[CompoundID] OR 440917[CompoundID] OR 6054[CompoundI
D] OR 43234[CompoundID] OR 22629[CompoundID] OR 3039[CompoundID] OR 2735067[CompoundID] OR 6144[CompoundID] OR 702[CompoundID] OR 284[CompoundID] OR 176[CompoundID] OR 91688[CompoundID] OR 22947[Compo
undID] OR 47445[CompoundID] OR 1711973[CompoundID] OR 243[CompoundID] OR 10342051[CompoundID] OR 5281875[CompoundID] OR 3776[CompoundID] OR 6224[CompoundID] OR 104926[CompoundID] OR 8755[CompoundID] O
R 338[CompoundID] OR 123622[CompoundID] OR 23954[CompoundID] OR 6334[CompoundID] OR 2537[CompoundID] OR 24261[CompoundID] OR 23665760[CompoundID] OR 83975[CompoundID] OR 784[CompoundID] OR 24437[Compo
undID] OR 5360315[CompoundID] OR 311[CompoundID] OR 6549[CompoundID] OR 107689[CompoundID] OR 17100[CompoundID] OR 24976875[CompoundID] OR 6654[CompoundID] OR 71245[CompoundID] OR 6442842[CompoundID]
OR 62334[CompoundID] OR 54698175[CompoundID] OR 6328154[CompoundID] OR 24762[CompoundID] OR 440950[CompoundID] OR 7017[CompoundID] OR 5281873[CompoundID] OR 323[CompoundID] OR 5281167[CompoundID] OR 7
175[CompoundID] OR 7292[CompoundID] OR 6335613[CompoundID] OR 7456[CompoundID] OR 7462[CompoundID]

> <resultIndex>
111

> <resultRange>
1-176

> <textQuery>
7628,244,25059,7618,7641,5053,637511,7714,7762,25429,8842,7794,637566,7843,174,7870,86102,7888,7896,1140,8042,8058,8078,8087,8117,8133,115224,8175,8194,445639,4944,8294,93541,8360,8363,656612,125098,3
352,3303913,64805,31200,1712058,31236,31239,31265,31266,31276,6950273,518659,14896,14798,14829,14830,8635,23266,4284,8693,22311,8759,8785,2723810,8857,3893,9936739,516892,5430,9017,15433,107720,955208
1,164825,10275455,16666,9839306,5282227,23676745,32881,91581,39800,33344,15962220,33528,5365075,62829,162381,517202,6433353,2730,5372405,36081,3120,3017,2969,18827,19518,19658,38283,2758,10112,10340,7
12,5794,3347,104150,2912,2450,40326,40585,517055,10913,108242,62097,41679,54680676,62118,753,1030,23673837,54678504,11442,11463,22230,440917,6054,43234,22629,3039,2735067,6144,702,284,176,91688,22947,
47445,1711973,243,10342051,5281875,3776,6224,104926,8755,338,123622,23954,6334,2537,24261,23665760,83975,784,24437,5360315,311,6549,107689,17100,24976875,6654,71245,6442842,62334,54698175,6328154,2476
2,440950,7017,5281873,323,5281167,7175,7292,6335613,7456,7462

$$$$
8,635
  SciTegic10191915303D

 20 20  0  0  0  0            999 V2000
    1.3300    3.0800    0.6390 C   0  0
    0.5840    1.8730    0.6840 O   0  0
    1.0530    0.9570   -0.1580 C   0  0
    0.3150   -0.3460   -0.1580 C   0  0
    1.0550   -1.5430   -0.1580 C   0  0
    0.3970   -2.7830   -0.1580 C   0  0
   -1.0060   -2.8340   -0.1580 C   0  0
   -1.7520   -1.6450   -0.1580 C   0  0
   -1.0990   -0.3970   -0.1580 C   0  0
   -1.8550    0.7500   -0.1580 N   0  0
    2.0040    1.1330   -0.8850 O   0  0
    0.8460    3.8070    1.2930 H   0  0
    2.3710    2.8480    0.8650 H   0  0
    1.2890    3.4690   -0.3790 H   0  0
    2.1350   -1.5180   -0.1580 H   0  0
    0.9710   -3.6990   -0.1580 H   0  0
   -1.5120   -3.7890   -0.1580 H   0  0
   -2.8320   -1.7090   -0.1580 H   0  0
   -1.4430    1.6560   -0.2360 H   0  0
   -2.8510    0.6910   -0.0800 H   0  0
  1  2  1  0
  2  3  1  0
  3  4  1  0
  3 11  2  0
  4  5  2  0
  4  9  1  0
  5  6  1  0
  6  7  2  0
  7  8  1  0
  8  9  2  0
  9 10  1  0
  1 12  1  0
  1 13  1  0
  1 14  1  0
  5 15  1  0
  6 16  1  0
  7 17  1  0
  8 18  1  0
 10 19  1  0
 10 20  1  0
M  END
> <Name>
8,635

> <OBJECTID>
9223372505009553419

> <ActiveAidCount>
8

> <AtomChiralCount>
0

> <AtomChiralDefCount>
0

> <AtomChiralUndefCount>
0

> <BondChiralCount>
0

> <BondChiralDefCount>
0

> <BondChiralUndefCount>
0

> <CID>
8635

> <CanonicalSmiles>
COC(=O)C1=CC=CC=C1N

> <Complexity>
147

> <CovalentUnitCount>
1

> <CreateDate>
2005/03/26 00:00

> <HeavyAtomCount>
11

> <HydrogenBondAcceptorCount>
3

> <HydrogenBondDonorCount>
1

> <IUPACName>
methyl 2-aminobenzoate

> <InChI>
InChI=1S/C8H9NO2/c1-11-8(10)6-4-2-3-5-7(6)9/h2-5H,9H2,1H3

> <InChIKey>
VAMXMNNIEUEQDV-UHFFFAOYSA-N

> <IsomericSmiles>
COC(=O)C1=CC=CC=C1N

> <IsotopeAtomCount>
0

> <MeSHHeading>
methyl anthranilate

> <MeSHTerm>
methyl anthranilate

> <MolecularFormula>
C8H9NO2

> <MolecularWeight>
151.16

> <RotatableBondCount>
2

> <Smiles>
COC(=O)c1c(N)cccc1

> <SourceCategory>
Chemical Vendors
Legacy Depositors
Research and Development
Curation Efforts
Governmental Organizations
NIH Initiatives
Subscription Services
Journal Publishers

> <Synonym>
METHYL ANTHRANILATE
Methyl 2-aminobenzoate
134-20-3
2-Aminobenzoic acid methyl ester
Methyl o-aminobenzoate
Nevoli oil
Methylanthranilate
Anthranilic acid methyl ester
o-Carbomethoxyaniline
2-Carbomethoxyaniline
2-(Methoxycarbonyl)aniline
Benzoic acid, 2-amino-, methyl ester
Neroli oil, artifical
Neroli oil, artificial
Anthranilic acid, methyl ester
O-methyl anthranilate
o-Aminobenzoic acid methyl ester
Amino methyl benzoate, o-
NSC 3109
Methyl anthranilate (natural)
UNII-981I0C1E5W
FEMA No. 2682
CCRIS 1349
Methylester kyseliny anthranilove
HSDB 1008
o-Amino methyl benzoate
Benzoic acid, amino-, methyl ester
EINECS 205-132-4
Epa Pesticide Chemical Code 128725
BRN 0606965
Methylester kyseliny anthranilove [Czech]
METHYL-2-AMINOBENZOATE
AI3-01022
CHEBI:73244
FEMA 2682
o-Aminobenzoic acid, methyl ester
2-amino-benzoic acid methyl ester
2-Aminobenzoic acid, methyl ester
VAMXMNNIEUEQDV-UHFFFAOYSA-N
981I0C1E5W
Methyl ester of o-Aminobenzoic acid
MFCD00007710
DSSTox_CID_5567
DSSTox_RID_77832
DSSTox_GSID_25567
CAS-134-20-3
methyl antranilate
Carbomethoxyaniline
methyl aminobenzoate
NEROLI
Anthranilic acid methyl
o-methoxycarbonylaniline
PubChem13629
methyl 2-amino-benzoate
AC1L1REA
AC1Q5ZBB
ACMC-209bu5
Methyl anthranilate, 99%
WLN: ZR BVO1
Anthranilic acid methylester
AC1Q42HZ
Acetaminophen 100% Powder
SCHEMBL57713
METHYL 2-ANTHRANILATE
KSC115A6D
METHYL ANTHRANILATE FCC
Methyl 2-aminobenzoate, 99%
Jsp002075
CHEMBL1493986
DTXSID6025567
2-Aminobenzoic acid-methyl ester
CTK0B5061
NSC3109
2-amino benzoic acid methyl ester
Natural Mandarin Pettigrain F.D.
NATURAL METHYL ANTHRANILATE
OTAVA-BB 1867348
LABOTEST-BB LTBB000479
ZINC157525
NSC-3109
ANTHRANILIC ACID:METHYL ESTER
Tox21_201657
Tox21_300347
ANW-19611
BBL027653
LS-775
methyl ester of o-amino benzoic acid
SBB059788
STK045541
AKOS000119222
AS01236
CS-W019645
MCULE-3500477192
RP21463
RTR-033354
TRA0074470
KS-000002O5
Methyl anthranilate, >=98%, FCC, FG
NCGC00091409-01
NCGC00091409-02
NCGC00091409-03
NCGC00254347-01
NCGC00259206-01
AC-11600
AJ-15047
AN-23083
BENZOIC ACID METHYL ESTER,2-AMINO
CJ-01677
SC-11429
ZB006711
DB-042220
Methyl anthranilate, natural, >=99%, FG
ST2413278
TL8006109
TR-033354
A0500
FT-0622414
Methyl 2-Aminobenzoate (Methyl Anthranilate)
ST45255311
C20634
M-5862
Methyl 2-aminobenzoate, ReagentPlus(R), >=99%
Methyl anthranilate, natural (US), >=99%, FG
I01-6584
W-108288
F2141-0131
Methyl 2-aminobenzoate, Vetec(TM) reagent grade, 98%
InChI=1/C8H9NO2/c1-11-8(10)6-4-2-3-5-7(6)9/h2-5H,9H2,1H
143202-08-8

> <TPSA>
52.3

> <TotalAidCount>
385

> <TotalFormalCharge>
0

> <XLogP>
1.9

> <database>
PubChem Compound

> <matchingCount>
176

> <primaryID>
8635

> <queryTranslation>
7628[CompoundID] OR 244[CompoundID] OR 25059[CompoundID] OR 7618[CompoundID] OR 7641[CompoundID] OR 5053[CompoundID] OR 637511[CompoundID] OR 7714[CompoundID] OR 7762[CompoundID] OR 25429[CompoundID]
OR 8842[CompoundID] OR 7794[CompoundID] OR 637566[CompoundID] OR 7843[CompoundID] OR 174[CompoundID] OR 7870[CompoundID] OR 86102[CompoundID] OR 7888[CompoundID] OR 7896[CompoundID] OR 1140[CompoundID
] OR 8042[CompoundID] OR 8058[CompoundID] OR 8078[CompoundID] OR 8087[CompoundID] OR 8117[CompoundID] OR 8133[CompoundID] OR 115224[CompoundID] OR 8175[CompoundID] OR 8194[CompoundID] OR 445639[Compou
ndID] OR 4944[CompoundID] OR 8294[CompoundID] OR 93541[CompoundID] OR 8360[CompoundID] OR 8363[CompoundID] OR 656612[CompoundID] OR 125098[CompoundID] OR 3352[CompoundID] OR 3303913[CompoundID] OR 648
05[CompoundID] OR 31200[CompoundID] OR 1712058[CompoundID] OR 31236[CompoundID] OR 31239[CompoundID] OR 31265[CompoundID] OR 31266[CompoundID] OR 31276[CompoundID] OR 6950273[CompoundID] OR 518659[Com
poundID] OR 14896[CompoundID] OR 14798[CompoundID] OR 14829[CompoundID] OR 14830[CompoundID] OR 8635[CompoundID] OR 23266[CompoundID] OR 4284[CompoundID] OR 8693[CompoundID] OR 22311[CompoundID] OR 87
59[CompoundID] OR 8785[CompoundID] OR 2723810[CompoundID] OR 8857[CompoundID] OR 3893[CompoundID] OR 9936739[CompoundID] OR 516892[CompoundID] OR 5430[CompoundID] OR 9017[CompoundID] OR 15433[Compound
ID] OR 107720[CompoundID] OR 9552081[CompoundID] OR 164825[CompoundID] OR 10275455[CompoundID] OR 16666[CompoundID] OR 9839306[CompoundID] OR 5282227[CompoundID] OR 23676745[CompoundID] OR 32881[Compo
undID] OR 91581[CompoundID] OR 39800[CompoundID] OR 33344[CompoundID] OR 15962220[CompoundID] OR 33528[CompoundID] OR 5365075[CompoundID] OR 62829[CompoundID] OR 162381[CompoundID] OR 517202[CompoundI
D] OR 6433353[CompoundID] OR 2730[CompoundID] OR 5372405[CompoundID] OR 36081[CompoundID] OR 3120[CompoundID] OR 3017[CompoundID] OR 2969[CompoundID] OR 18827[CompoundID] OR 19518[CompoundID] OR 19658
[CompoundID] OR 38283[CompoundID] OR 2758[CompoundID] OR 10112[CompoundID] OR 10340[CompoundID] OR 712[CompoundID] OR 5794[CompoundID] OR 3347[CompoundID] OR 104150[CompoundID] OR 2912[CompoundID] OR
2450[CompoundID] OR 40326[CompoundID] OR 40585[CompoundID] OR 517055[CompoundID] OR 10913[CompoundID] OR 108242[CompoundID] OR 62097[CompoundID] OR 41679[CompoundID] OR 54680676[CompoundID] OR 62118[C
ompoundID] OR 753[CompoundID] OR 1030[CompoundID] OR 23673837[CompoundID] OR 54678504[CompoundID] OR 11442[CompoundID] OR 11463[CompoundID] OR 22230[CompoundID] OR 440917[CompoundID] OR 6054[CompoundI
D] OR 43234[CompoundID] OR 22629[CompoundID] OR 3039[CompoundID] OR 2735067[CompoundID] OR 6144[CompoundID] OR 702[CompoundID] OR 284[CompoundID] OR 176[CompoundID] OR 91688[CompoundID] OR 22947[Compo
undID] OR 47445[CompoundID] OR 1711973[CompoundID] OR 243[CompoundID] OR 10342051[CompoundID] OR 5281875[CompoundID] OR 3776[CompoundID] OR 6224[CompoundID] OR 104926[CompoundID] OR 8755[CompoundID] O
R 338[CompoundID] OR 123622[CompoundID] OR 23954[CompoundID] OR 6334[CompoundID] OR 2537[CompoundID] OR 24261[CompoundID] OR 23665760[CompoundID] OR 83975[CompoundID] OR 784[CompoundID] OR 24437[Compo
undID] OR 5360315[CompoundID] OR 311[CompoundID] OR 6549[CompoundID] OR 107689[CompoundID] OR 17100[CompoundID] OR 24976875[CompoundID] OR 6654[CompoundID] OR 71245[CompoundID] OR 6442842[CompoundID]
OR 62334[CompoundID] OR 54698175[CompoundID] OR 6328154[CompoundID] OR 24762[CompoundID] OR 440950[CompoundID] OR 7017[CompoundID] OR 5281873[CompoundID] OR 323[CompoundID] OR 5281167[CompoundID] OR 7
175[CompoundID] OR 7292[CompoundID] OR 6335613[CompoundID] OR 7456[CompoundID] OR 7462[CompoundID]

> <resultIndex>
112

> <resultRange>
1-176

> <textQuery>
7628,244,25059,7618,7641,5053,637511,7714,7762,25429,8842,7794,637566,7843,174,7870,86102,7888,7896,1140,8042,8058,8078,8087,8117,8133,115224,8175,8194,445639,4944,8294,93541,8360,8363,656612,125098,3
352,3303913,64805,31200,1712058,31236,31239,31265,31266,31276,6950273,518659,14896,14798,14829,14830,8635,23266,4284,8693,22311,8759,8785,2723810,8857,3893,9936739,516892,5430,9017,15433,107720,955208
1,164825,10275455,16666,9839306,5282227,23676745,32881,91581,39800,33344,15962220,33528,5365075,62829,162381,517202,6433353,2730,5372405,36081,3120,3017,2969,18827,19518,19658,38283,2758,10112,10340,7
12,5794,3347,104150,2912,2450,40326,40585,517055,10913,108242,62097,41679,54680676,62118,753,1030,23673837,54678504,11442,11463,22230,440917,6054,43234,22629,3039,2735067,6144,702,284,176,91688,22947,
47445,1711973,243,10342051,5281875,3776,6224,104926,8755,338,123622,23954,6334,2537,24261,23665760,83975,784,24437,5360315,311,6549,107689,17100,24976875,6654,71245,6442842,62334,54698175,6328154,2476
2,440950,7017,5281873,323,5281167,7175,7292,6335613,7456,7462

$$$$
8,363
  SciTegic10191915303D

 29 30  0  0  0  0            999 V2000
    2.0720    3.7210    0.1600 O   0  0
    2.1250    2.7580    1.0580 C   0  0
    2.9280    2.9180    2.2030 C   0  0
    2.9940    1.9000    3.1700 C   0  0
    2.2580    0.7170    2.9960 C   0  0
    1.4550    0.5510    1.8550 C   0  0
    1.3870    1.5700    0.8860 C   0  0
    0.5300    1.3830   -0.3250 C   0  0
    0.4530    2.2400   -1.1700 O   0  0
   -0.1210    0.2230   -0.3830 O   0  0
   -0.9160    0.1090   -1.5530 C   0  0
   -1.6130   -1.2050   -1.5530 C   0  0
   -3.0170   -1.2560   -1.5530 C   0  0
   -3.6760   -2.4980   -1.5530 C   0  0
   -2.9300   -3.6900   -1.5530 C   0  0
   -1.5250   -3.6390   -1.5530 C   0  0
   -0.8650   -2.3970   -1.5530 C   0  0
    2.5880    4.5270    0.3000 H   0  0
    3.4960    3.8260    2.3410 H   0  0
    3.6120    2.0270    4.0470 H   0  0
    2.3090   -0.0660    3.7380 H   0  0
    0.8930   -0.3630    1.7280 H   0  0
   -0.2580    0.1720   -2.4200 H   0  0
   -1.6540    0.9120   -1.5450 H   0  0
   -3.5980   -0.3440   -1.5530 H   0  0
   -4.7560   -2.5370   -1.5530 H   0  0
   -3.4350   -4.6450   -1.5530 H   0  0
   -0.9510   -4.5530   -1.5530 H   0  0
    0.2130   -2.3630   -1.5530 H   0  0
  1  2  1  0
  2  3  2  0
  2  7  1  0
  3  4  1  0
  4  5  2  0
  5  6  1  0
  6  7  2  0
  7  8  1  0
  8  9  2  0
  8 10  1  0
 10 11  1  0
 11 12  1  0
 12 13  2  0
 12 17  1  0
 13 14  1  0
 14 15  2  0
 15 16  1  0
 16 17  2  0
  1 18  1  0
  3 19  1  0
  4 20  1  0
  5 21  1  0
  6 22  1  0
 11 23  1  0
 11 24  1  0
 13 25  1  0
 14 26  1  0
 15 27  1  0
 16 28  1  0
 17 29  1  0
M  END
> <Name>
8,363

> <OBJECTID>
9223372509304520715

> <ActiveAidCount>
11

> <AtomChiralCount>
0

> <AtomChiralDefCount>
0

> <AtomChiralUndefCount>
0

> <BondChiralCount>
0

> <BondChiralDefCount>
0

> <BondChiralUndefCount>
0

> <CID>
8363

> <CanonicalSmiles>
C1=CC=C(C=C1)COC(=O)C2=CC=CC=C2O

> <Complexity>
246

> <CovalentUnitCount>
1

> <CreateDate>
2005/03/26 00:00

> <HeavyAtomCount>
17

> <HydrogenBondAcceptorCount>
3

> <HydrogenBondDonorCount>
1

> <IUPACName>
benzyl 2-hydroxybenzoate

> <InChI>
InChI=1S/C14H12O3/c15-13-9-5-4-8-12(13)14(16)17-10-11-6-2-1-3-7-11/h1-9,15H,10H2

> <InChIKey>
ZCTQGTTXIYCGGC-UHFFFAOYSA-N

> <IsomericSmiles>
C1=CC=C(C=C1)COC(=O)C2=CC=CC=C2O

> <IsotopeAtomCount>
0

> <MeSHHeading>
benzyl salicylate

> <MeSHTerm>
benzyl salicylate

> <MolecularFormula>
C14H12O3

> <MolecularWeight>
228.24

> <RotatableBondCount>
4

> <Smiles>
Oc1c(C(OCc2ccccc2)=O)cccc1

> <SourceCategory>
Chemical Vendors
Legacy Depositors
Research and Development
Curation Efforts
Governmental Organizations
NIH Initiatives
Subscription Services
Journal Publishers

> <Synonym>
BENZYL SALICYLATE
118-58-1
Benzyl 2-hydroxybenzoate
Benzyl o-hydroxybenzoate
Salicylic acid, benzyl ester
Benzoic acid, 2-hydroxy-, phenylmethyl ester
Phenylmethyl 2-hydroxybenzoate
Salicylic Acid Benzyl Ester
Salicyclic acid, benzyl ester
Salicylsaeurebenzylester
UNII-WAO5MNK9TU
Salicyclic acid benzyl ester
FEMA No. 2151
CCRIS 4749
2-Hydroxybenzoic acid phenylmethyl ester
WAO5MNK9TU
NSC 6647
EINECS 204-262-9
BRN 2115365
2-Hydroxybenzoic acid, phenylmethyl ester
AI3-00517
ZCTQGTTXIYCGGC-UHFFFAOYSA-N
MFCD00020034
Benzoic acid, hydroxy-, phenylmethyl ester
DSSTox_CID_4598
DSSTox_RID_77462
DSSTox_GSID_24598
CAS-118-58-1
benzyl-salicylate
Benzyle salicylate
salicylic acid benzyl
Benzyl O-Hydroxybenzene
ACMC-1BQME
Benzyl salicylate, 98%
WLN: QR BVO1R
EC 204-262-9
Salicylic acid-benzyl ester
AC1L1QU8
SCHEMBL15573
4-10-00-00157 (Beilstein Handbook Reference)
KSC167S5L
MLS002415718
BIDD:ER0019
AC1Q792P
CHEMBL460124
DTXSID1024598
FEMA 2151
HSDB 8387
NSC6647
Benzyl salicylate, >=98%, FG
HMS2268I12
ZINC388079
2-Hydroxybenzoic Acid Benzyl Ester
AC1Q7885
NSC-6647
Tox21_201869
Tox21_303046
ANW-17146
SBB058754
Benzyl salicylate, analytical standard
AKOS015915010
MCULE-2477442780
NCGC00091411-01
NCGC00091411-02
NCGC00091411-03
NCGC00256928-01
NCGC00259418-01
AC-11580
AJ-20419
AK113973
AN-22785
AS-12902
CJ-03102
SMR000112465
ZB011271
RT-000472
Benzyl salicylate, purum, >=99.0% (GC)
FT-0654421
S0009
ST24030145
ST50405469
I14-6949
J-003850
Z19703595
InChI=1/C14H12O3/c15-13-9-5-4-8-12(13)14(16)17-10-11-6-2-1-3-7-11/h1-9,15H,10H

> <TPSA>
46.5

> <TotalAidCount>
599

> <TotalFormalCharge>
0

> <XLogP>
3.2

> <database>
PubChem Compound

> <matchingCount>
176

> <primaryID>
8363

> <queryTranslation>
7628[CompoundID] OR 244[CompoundID] OR 25059[CompoundID] OR 7618[CompoundID] OR 7641[CompoundID] OR 5053[CompoundID] OR 637511[CompoundID] OR 7714[CompoundID] OR 7762[CompoundID] OR 25429[CompoundID]
OR 8842[CompoundID] OR 7794[CompoundID] OR 637566[CompoundID] OR 7843[CompoundID] OR 174[CompoundID] OR 7870[CompoundID] OR 86102[CompoundID] OR 7888[CompoundID] OR 7896[CompoundID] OR 1140[CompoundID
] OR 8042[CompoundID] OR 8058[CompoundID] OR 8078[CompoundID] OR 8087[CompoundID] OR 8117[CompoundID] OR 8133[CompoundID] OR 115224[CompoundID] OR 8175[CompoundID] OR 8194[CompoundID] OR 445639[Compou
ndID] OR 4944[CompoundID] OR 8294[CompoundID] OR 93541[CompoundID] OR 8360[CompoundID] OR 8363[CompoundID] OR 656612[CompoundID] OR 125098[CompoundID] OR 3352[CompoundID] OR 3303913[CompoundID] OR 648
05[CompoundID] OR 31200[CompoundID] OR 1712058[CompoundID] OR 31236[CompoundID] OR 31239[CompoundID] OR 31265[CompoundID] OR 31266[CompoundID] OR 31276[CompoundID] OR 6950273[CompoundID] OR 518659[Com
poundID] OR 14896[CompoundID] OR 14798[CompoundID] OR 14829[CompoundID] OR 14830[CompoundID] OR 8635[CompoundID] OR 23266[CompoundID] OR 4284[CompoundID] OR 8693[CompoundID] OR 22311[CompoundID] OR 87
59[CompoundID] OR 8785[CompoundID] OR 2723810[CompoundID] OR 8857[CompoundID] OR 3893[CompoundID] OR 9936739[CompoundID] OR 516892[CompoundID] OR 5430[CompoundID] OR 9017[CompoundID] OR 15433[Compound
ID] OR 107720[CompoundID] OR 9552081[CompoundID] OR 164825[CompoundID] OR 10275455[CompoundID] OR 16666[CompoundID] OR 9839306[CompoundID] OR 5282227[CompoundID] OR 23676745[CompoundID] OR 32881[Compo
undID] OR 91581[CompoundID] OR 39800[CompoundID] OR 33344[CompoundID] OR 15962220[CompoundID] OR 33528[CompoundID] OR 5365075[CompoundID] OR 62829[CompoundID] OR 162381[CompoundID] OR 517202[CompoundI
D] OR 6433353[CompoundID] OR 2730[CompoundID] OR 5372405[CompoundID] OR 36081[CompoundID] OR 3120[CompoundID] OR 3017[CompoundID] OR 2969[CompoundID] OR 18827[CompoundID] OR 19518[CompoundID] OR 19658
[CompoundID] OR 38283[CompoundID] OR 2758[CompoundID] OR 10112[CompoundID] OR 10340[CompoundID] OR 712[CompoundID] OR 5794[CompoundID] OR 3347[CompoundID] OR 104150[CompoundID] OR 2912[CompoundID] OR
2450[CompoundID] OR 40326[CompoundID] OR 40585[CompoundID] OR 517055[CompoundID] OR 10913[CompoundID] OR 108242[CompoundID] OR 62097[CompoundID] OR 41679[CompoundID] OR 54680676[CompoundID] OR 62118[C
ompoundID] OR 753[CompoundID] OR 1030[CompoundID] OR 23673837[CompoundID] OR 54678504[CompoundID] OR 11442[CompoundID] OR 11463[CompoundID] OR 22230[CompoundID] OR 440917[CompoundID] OR 6054[CompoundI
D] OR 43234[CompoundID] OR 22629[CompoundID] OR 3039[CompoundID] OR 2735067[CompoundID] OR 6144[CompoundID] OR 702[CompoundID] OR 284[CompoundID] OR 176[CompoundID] OR 91688[CompoundID] OR 22947[Compo
undID] OR 47445[CompoundID] OR 1711973[CompoundID] OR 243[CompoundID] OR 10342051[CompoundID] OR 5281875[CompoundID] OR 3776[CompoundID] OR 6224[CompoundID] OR 104926[CompoundID] OR 8755[CompoundID] O
R 338[CompoundID] OR 123622[CompoundID] OR 23954[CompoundID] OR 6334[CompoundID] OR 2537[CompoundID] OR 24261[CompoundID] OR 23665760[CompoundID] OR 83975[CompoundID] OR 784[CompoundID] OR 24437[Compo
undID] OR 5360315[CompoundID] OR 311[CompoundID] OR 6549[CompoundID] OR 107689[CompoundID] OR 17100[CompoundID] OR 24976875[CompoundID] OR 6654[CompoundID] OR 71245[CompoundID] OR 6442842[CompoundID]
OR 62334[CompoundID] OR 54698175[CompoundID] OR 6328154[CompoundID] OR 24762[CompoundID] OR 440950[CompoundID] OR 7017[CompoundID] OR 5281873[CompoundID] OR 323[CompoundID] OR 5281167[CompoundID] OR 7
175[CompoundID] OR 7292[CompoundID] OR 6335613[CompoundID] OR 7456[CompoundID] OR 7462[CompoundID]

> <resultIndex>
113

> <resultRange>
1-176

> <textQuery>
7628,244,25059,7618,7641,5053,637511,7714,7762,25429,8842,7794,637566,7843,174,7870,86102,7888,7896,1140,8042,8058,8078,8087,8117,8133,115224,8175,8194,445639,4944,8294,93541,8360,8363,656612,125098,3
352,3303913,64805,31200,1712058,31236,31239,31265,31266,31276,6950273,518659,14896,14798,14829,14830,8635,23266,4284,8693,22311,8759,8785,2723810,8857,3893,9936739,516892,5430,9017,15433,107720,955208
1,164825,10275455,16666,9839306,5282227,23676745,32881,91581,39800,33344,15962220,33528,5365075,62829,162381,517202,6433353,2730,5372405,36081,3120,3017,2969,18827,19518,19658,38283,2758,10112,10340,7
12,5794,3347,104150,2912,2450,40326,40585,517055,10913,108242,62097,41679,54680676,62118,753,1030,23673837,54678504,11442,11463,22230,440917,6054,43234,22629,3039,2735067,6144,702,284,176,91688,22947,
47445,1711973,243,10342051,5281875,3776,6224,104926,8755,338,123622,23954,6334,2537,24261,23665760,83975,784,24437,5360315,311,6549,107689,17100,24976875,6654,71245,6442842,62334,54698175,6328154,2476
2,440950,7017,5281873,323,5281167,7175,7292,6335613,7456,7462

$$$$
8,360
  SciTegic10191915303D

 17 17  0  0  0  0            999 V2000
   -0.5420   -3.7030    0.1310 Cl  0  0
   -0.5230   -1.9600    0.0750 N   0  0
    0.6340   -1.1620    0.0190 C   0  0
    1.7640   -1.5920    0.0030 O   0  0
    0.2070    0.2960   -0.0160 C   0  0
    0.7460    1.0350    1.2040 C   0  0
    0.6820    0.9560   -1.3050 C   0  0
   -1.2550    0.1950    0.0250 N   0  0
   -2.3490    1.5540    0.0090 Cl  0  0
   -1.6520   -1.1420    0.0790 C   0  0
   -2.7970   -1.5310    0.1220 O   0  0
    0.4130    0.5780    2.1360 H   0  0
    0.4130    2.0730    1.2040 H   0  0
    1.8360    1.0350    1.2040 H   0  0
    0.3000    0.4220   -2.1750 H   0  0
    0.3500    1.9940   -1.3520 H   0  0
    1.7710    0.9520   -1.3630 H   0  0
  1  2  1  0
  2  3  1  0
  2 10  1  0
  3  4  2  0
  3  5  1  0
  5  6  1  0
  5  7  1  0
  5  8  1  0
  8  9  1  0
  8 10  1  0
 10 11  2  0
  6 12  1  0
  6 13  1  0
  6 14  1  0
  7 15  1  0
  7 16  1  0
  7 17  1  0
M  END
> <Name>
8,360

> <OBJECTID>
9223372513599488011

> <ActiveAidCount>
2

> <AtomChiralCount>
0

> <AtomChiralDefCount>
0

> <AtomChiralUndefCount>
0

> <BondChiralCount>
0

> <BondChiralDefCount>
0

> <BondChiralUndefCount>
0

> <CID>
8360

> <CanonicalSmiles>
CC1(C(=O)N(C(=O)N1Cl)Cl)C

> <Complexity>
229

> <CovalentUnitCount>
1

> <CreateDate>
2005/03/26 00:00

> <HeavyAtomCount>
11

> <HydrogenBondAcceptorCount>
2

> <HydrogenBondDonorCount>
0

> <IUPACName>
1,3-dichloro-5,5-dimethylimidazolidine-2,4-dione

> <InChI>
InChI=1S/C5H6Cl2N2O2/c1-5(2)3(10)8(6)4(11)9(5)7/h1-2H3

> <InChIKey>
KEQGZUUPPQEDPF-UHFFFAOYSA-N

> <IsomericSmiles>
CC1(C(=O)N(C(=O)N1Cl)Cl)C

> <IsotopeAtomCount>
0

> <MeSHHeading>
1,3-dichloro-5,5-dimethylhydantoin

> <MeSHTerm>
dantoin
dichlorantin
1,3-dichloro-5,5-dimethylhydantoin

> <MolecularFormula>
C5H6Cl2N2O2

> <MolecularWeight>
197.02

> <RotatableBondCount>
0

> <Smiles>
ClN1C(=O)N(Cl)C(C)(C)C1=O

> <SourceCategory>
Chemical Vendors
Legacy Depositors
Research and Development
Curation Efforts
Governmental Organizations
Subscription Services
Journal Publishers
NIH Initiatives

> <Synonym>
1,3-DICHLORO-5,5-DIMETHYLHYDANTOIN
118-52-5
Dantoin
Dactin
Daktin
Dichlorantin
Omchlor
Halane
Hydan
1,3-dichloro-5,5-dimethylimidazolidine-2,4-dione
Hydantoin, dichlorodimethyl-
Hydan (antiseptic)
NCI-C03054
1,3-Dichloro-5,5-dimethyl-2,4-imidazolidinedione
2,4-Imidazolidinedione, 1,3-dichloro-5,5-dimethyl-
Caswell No. 306
Dwuchlorantyny [Polish]
Sulfochloranthine
UNII-70H8B2WWTU
MFCD00003190
NSC 33307
NSC 38630
CCRIS 5900
Hydantoin, 1,3-dichloro-5,5-dimethyl-
HSDB 4373
1,3-Dichloro-5,5'-methylhydantoin
EINECS 204-258-7
1,3-Dichloro-5,5-dimethyl hydantoin
EPA Pesticide Chemical Code 028501
BRN 0146013
70H8B2WWTU
AI3-23669
KEQGZUUPPQEDPF-UHFFFAOYSA-N
1,3-Dwuchloro-5,5-dwumetylohydantoina [Polish]
NSC33307
NSC38630
1,3-dichloro-5,5-dimethyl-imidazolidine-2,4-dione
1,5-dimethylhydantoin
DSSTox_CID_4985
1,3-Dichloro-5,5-dimethylhydantoin (DCDMH)
DSSTox_RID_77612
DSSTox_GSID_24985
Dwuchlorantyny
2, 1,3-dichloro-5,5-dimethyl-
Hydantoin,3-dichloro-5,5-dimethyl-
WLN: T5NVNV EHJ AG CG E1 E1
CAS-118-52-5
C5H6Cl2N2O2
Chlorantine
Dantochlor RW
DCDMH
1,3-dichloro-5,5-dimethyl-hydantoin
1,3-Dwuchloro-5,5-dwumetylohydantoina
dichlorodimethylhydantoin
PubChem19103
AC1L1QTZ
ACMC-2099xi
AC1Q6FP6
5-24-05-00373 (Beilstein Handbook Reference)
KSC496G4D
SCHEMBL123299
CHEMBL1899986
DTXSID4024985
CTK3J6341
KS-00000IPA
1,3-Dichloro-5,5-Dimethyl-2,4-Imidazolidinedione(DCDMH)
ZINC1665567
Tox21_202384
Tox21_300184
ANW-17140
BBL011089
NSC-33307
NSC-38630
STK802311
1,3-Dichloro-5,5-dimethylhydantoine
1 ,3-dichloro-5,5-dimethylhydantoin
AKOS000120004
AC-1604
CS-W018514
MCULE-4657544987
RTR-003172
TRA0001538
NCGC00164351-01
NCGC00164351-02
NCGC00164351-03
NCGC00254084-01
NCGC00259933-01
AJ-28999
AK-41295
AN-14773
BC675270
BR-41295
CJ-06046
CJ-26928
K876
SC-26715
DB-041411
LS-185040
TR-003172
D1783
FT-0606647
ST24032139
M-6116
Hydantoin, 1,3-dichloro-5,5-dimethyl- (8CI)
103035-EP2298763A1
103035-EP2301918A1
I14-0253
W-108540
F0001-0296
1,3-Dichloro-5,5-dimethylhydantoin, available chlorine 68 %

> <TPSA>
40.6

> <TotalAidCount>
246

> <TotalFormalCharge>
0

> <XLogP>
1.1

> <database>
PubChem Compound

> <matchingCount>
176

> <primaryID>
8360

> <queryTranslation>
7628[CompoundID] OR 244[CompoundID] OR 25059[CompoundID] OR 7618[CompoundID] OR 7641[CompoundID] OR 5053[CompoundID] OR 637511[CompoundID] OR 7714[CompoundID] OR 7762[CompoundID] OR 25429[CompoundID]
OR 8842[CompoundID] OR 7794[CompoundID] OR 637566[CompoundID] OR 7843[CompoundID] OR 174[CompoundID] OR 7870[CompoundID] OR 86102[CompoundID] OR 7888[CompoundID] OR 7896[CompoundID] OR 1140[CompoundID
] OR 8042[CompoundID] OR 8058[CompoundID] OR 8078[CompoundID] OR 8087[CompoundID] OR 8117[CompoundID] OR 8133[CompoundID] OR 115224[CompoundID] OR 8175[CompoundID] OR 8194[CompoundID] OR 445639[Compou
ndID] OR 4944[CompoundID] OR 8294[CompoundID] OR 93541[CompoundID] OR 8360[CompoundID] OR 8363[CompoundID] OR 656612[CompoundID] OR 125098[CompoundID] OR 3352[CompoundID] OR 3303913[CompoundID] OR 648
05[CompoundID] OR 31200[CompoundID] OR 1712058[CompoundID] OR 31236[CompoundID] OR 31239[CompoundID] OR 31265[CompoundID] OR 31266[CompoundID] OR 31276[CompoundID] OR 6950273[CompoundID] OR 518659[Com
poundID] OR 14896[CompoundID] OR 14798[CompoundID] OR 14829[CompoundID] OR 14830[CompoundID] OR 8635[CompoundID] OR 23266[CompoundID] OR 4284[CompoundID] OR 8693[CompoundID] OR 22311[CompoundID] OR 87
59[CompoundID] OR 8785[CompoundID] OR 2723810[CompoundID] OR 8857[CompoundID] OR 3893[CompoundID] OR 9936739[CompoundID] OR 516892[CompoundID] OR 5430[CompoundID] OR 9017[CompoundID] OR 15433[Compound
ID] OR 107720[CompoundID] OR 9552081[CompoundID] OR 164825[CompoundID] OR 10275455[CompoundID] OR 16666[CompoundID] OR 9839306[CompoundID] OR 5282227[CompoundID] OR 23676745[CompoundID] OR 32881[Compo
undID] OR 91581[CompoundID] OR 39800[CompoundID] OR 33344[CompoundID] OR 15962220[CompoundID] OR 33528[CompoundID] OR 5365075[CompoundID] OR 62829[CompoundID] OR 162381[CompoundID] OR 517202[CompoundI
D] OR 6433353[CompoundID] OR 2730[CompoundID] OR 5372405[CompoundID] OR 36081[CompoundID] OR 3120[CompoundID] OR 3017[CompoundID] OR 2969[CompoundID] OR 18827[CompoundID] OR 19518[CompoundID] OR 19658
[CompoundID] OR 38283[CompoundID] OR 2758[CompoundID] OR 10112[CompoundID] OR 10340[CompoundID] OR 712[CompoundID] OR 5794[CompoundID] OR 3347[CompoundID] OR 104150[CompoundID] OR 2912[CompoundID] OR
2450[CompoundID] OR 40326[CompoundID] OR 40585[CompoundID] OR 517055[CompoundID] OR 10913[CompoundID] OR 108242[CompoundID] OR 62097[CompoundID] OR 41679[CompoundID] OR 54680676[CompoundID] OR 62118[C
ompoundID] OR 753[CompoundID] OR 1030[CompoundID] OR 23673837[CompoundID] OR 54678504[CompoundID] OR 11442[CompoundID] OR 11463[CompoundID] OR 22230[CompoundID] OR 440917[CompoundID] OR 6054[CompoundI
D] OR 43234[CompoundID] OR 22629[CompoundID] OR 3039[CompoundID] OR 2735067[CompoundID] OR 6144[CompoundID] OR 702[CompoundID] OR 284[CompoundID] OR 176[CompoundID] OR 91688[CompoundID] OR 22947[Compo
undID] OR 47445[CompoundID] OR 1711973[CompoundID] OR 243[CompoundID] OR 10342051[CompoundID] OR 5281875[CompoundID] OR 3776[CompoundID] OR 6224[CompoundID] OR 104926[CompoundID] OR 8755[CompoundID] O
R 338[CompoundID] OR 123622[CompoundID] OR 23954[CompoundID] OR 6334[CompoundID] OR 2537[CompoundID] OR 24261[CompoundID] OR 23665760[CompoundID] OR 83975[CompoundID] OR 784[CompoundID] OR 24437[Compo
undID] OR 5360315[CompoundID] OR 311[CompoundID] OR 6549[CompoundID] OR 107689[CompoundID] OR 17100[CompoundID] OR 24976875[CompoundID] OR 6654[CompoundID] OR 71245[CompoundID] OR 6442842[CompoundID]
OR 62334[CompoundID] OR 54698175[CompoundID] OR 6328154[CompoundID] OR 24762[CompoundID] OR 440950[CompoundID] OR 7017[CompoundID] OR 5281873[CompoundID] OR 323[CompoundID] OR 5281167[CompoundID] OR 7
175[CompoundID] OR 7292[CompoundID] OR 6335613[CompoundID] OR 7456[CompoundID] OR 7462[CompoundID]

> <resultIndex>
114

> <resultRange>
1-176

> <textQuery>
7628,244,25059,7618,7641,5053,637511,7714,7762,25429,8842,7794,637566,7843,174,7870,86102,7888,7896,1140,8042,8058,8078,8087,8117,8133,115224,8175,8194,445639,4944,8294,93541,8360,8363,656612,125098,3
352,3303913,64805,31200,1712058,31236,31239,31265,31266,31276,6950273,518659,14896,14798,14829,14830,8635,23266,4284,8693,22311,8759,8785,2723810,8857,3893,9936739,516892,5430,9017,15433,107720,955208
1,164825,10275455,16666,9839306,5282227,23676745,32881,91581,39800,33344,15962220,33528,5365075,62829,162381,517202,6433353,2730,5372405,36081,3120,3017,2969,18827,19518,19658,38283,2758,10112,10340,7
12,5794,3347,104150,2912,2450,40326,40585,517055,10913,108242,62097,41679,54680676,62118,753,1030,23673837,54678504,11442,11463,22230,440917,6054,43234,22629,3039,2735067,6144,702,284,176,91688,22947,
47445,1711973,243,10342051,5281875,3776,6224,104926,8755,338,123622,23954,6334,2537,24261,23665760,83975,784,24437,5360315,311,6549,107689,17100,24976875,6654,71245,6442842,62334,54698175,6328154,2476
2,440950,7017,5281873,323,5281167,7175,7292,6335613,7456,7462

$$$$
8,294
  SciTegic10191915303D

 34 33  0  0  1  0            999 V2000
   -2.9360   -2.0980    0.0440 C   0  0
   -1.6220   -2.3450    0.1710 C   0  0
   -0.6880   -1.1810    0.3670 C   0  0  3  0  0  0
    0.3510   -1.5610   -0.5230 O   0  0
   -0.0900   -1.7520   -1.7630 C   0  0
   -0.7210   -0.9320   -2.3880 O   0  0
    0.2510   -3.0890   -2.3650 C   0  0
   -1.2990    0.1420   -0.0970 C   0  0
   -0.2420    1.1970   -0.4250 C   0  0
    0.2690    1.8980    0.8050 C   0  0
    1.4130    2.5970    0.7150 C   0  0
    1.9240    3.2990    1.9440 C   0  0
    2.1240    2.6430   -0.6110 C   0  0
   -0.1380   -1.1080    1.7920 C   0  0
   -3.4210   -1.1330    0.0660 H   0  0
   -3.5590   -2.9690   -0.0940 H   0  0
   -1.3400   -3.3860    0.1210 H   0  0
   -0.1430   -3.2260   -3.3720 H   0  0
   -0.1460   -3.8890   -1.7400 H   0  0
    1.3330   -3.2090   -2.4110 H   0  0
   -1.9610   -0.0180   -0.9480 H   0  0
   -2.0060    0.5200    0.6410 H   0  0
   -0.7290    1.9150   -1.0860 H   0  0
    0.5900    0.7520   -0.9710 H   0  0
   -0.3270    1.7930    1.6990 H   0  0
    1.5910    2.8420    2.8760 H   0  0
    1.5910    4.3360    1.9440 H   0  0
    3.0140    3.2990    1.9440 H   0  0
    1.4070    2.8320   -1.4100 H   0  0
    2.9060    3.4020   -0.5860 H   0  0
    2.5990    1.6820   -0.8100 H   0  0
    0.2100   -2.0800    2.1430 H   0  0
   -0.9040   -0.7580    2.4840 H   0  0
    0.7020   -0.4150    1.8450 H   0  0
  1  2  2  0
  2  3  1  0
  3  4  1  0
  3  8  1  0
  3 14  1  0
  4  5  1  0
  5  6  2  0
  5  7  1  0
  8  9  1  0
  9 10  1  0
 10 11  2  0
 11 12  1  0
 11 13  1  0
  1 15  1  0
  1 16  1  0
  2 17  1  0
  7 18  1  0
  7 19  1  0
  7 20  1  0
  8 21  1  0
  8 22  1  0
  9 23  1  0
  9 24  1  0
 10 25  1  0
 12 26  1  0
 12 27  1  0
 12 28  1  0
 13 29  1  0
 13 30  1  0
 13 31  1  0
 14 32  1  0
 14 33  1  0
 14 34  1  0
M  END
> <Name>
8,294

> <OBJECTID>
9223372517894455307

> <ActiveAidCount>
2

> <AtomChiralCount>
1

> <AtomChiralDefCount>
0

> <AtomChiralUndefCount>
1

> <BondChiralCount>
0

> <BondChiralDefCount>
0

> <BondChiralUndefCount>
0

> <CID>
8294

> <CanonicalSmiles>
CC(=CCCC(C)(C=C)OC(=O)C)C

> <Complexity>
237

> <CovalentUnitCount>
1

> <CreateDate>
2005/03/26 00:00

> <HeavyAtomCount>
14

> <HydrogenBondAcceptorCount>
2

> <HydrogenBondDonorCount>
0

> <IUPACName>
3,7-dimethylocta-1,6-dien-3-yl acetate

> <InChI>
InChI=1S/C12H20O2/c1-6-12(5,14-11(4)13)9-7-8-10(2)3/h6,8H,1,7,9H2,2-5H3

> <InChIKey>
UWKAYLJWKGQEPM-UHFFFAOYSA-N

> <IsomericSmiles>
CC(=CCCC(C)(C=C)OC(=O)C)C

> <IsotopeAtomCount>
0

> <MeSHHeading>
linalyl acetate

> <MeSHTerm>
linalyl acetate, (R)-isomer
linalyl acetate, (S)-isomer
linalyl acetate
linalyl acetate, (+-)-isomer

> <MolecularFormula>
C12H20O2

> <MolecularWeight>
196.29

> <RotatableBondCount>
6

> <Smiles>
C=CC(C)(CC\C=C(\C)/C)OC(C)=O

> <SourceCategory>
Chemical Vendors
Legacy Depositors
Research and Development
Curation Efforts
Governmental Organizations
Subscription Services
Journal Publishers
NIH Initiatives

> <Synonym>
LINALYL ACETATE
115-95-7
Linalool acetate
Bergamiol
Bergamol
3,7-dimethylocta-1,6-dien-3-yl acetate
Linalol acetate
Lynalyl acetate
Licareol acetate
Bergamot mint oil
Acetic acid linalool ester
3,7-Dimethyl-1,6-octadien-3-ol acetate
3,7-Dimethyl-1,6-octadien-3-yl acetate
1,6-Octadien-3-ol, 3,7-dimethyl-, acetate
Ex bois de rose (synthetic)
Phanteine
Dehydrolinalool, acetate
Aetic Acid Linalool Ester
Linalyl acetate (natural)
NSC 2138
FEMA No. 2636
HSDB 644
LINALYL ACETATE SYNTHETIC
EINECS 204-116-4
EINECS 254-806-4
MFCD00008907
1,6-Octadien-3-ol, 3,7-dimethyl-, 3-acetate
1,5-Dimethyl-1-vinyl-4-hexenyl acetate
3,7-Dimethyl-1,6-ctadien-3-ol acetate
AI3-00941
CHEBI:78333
(1)-1,5-Dimethyl-1-vinylhex-4-enyl acetate
UWKAYLJWKGQEPM-UHFFFAOYSA-N
(1,5-dimethyl-1-vinyl-hex-4-enyl) acetate
1,5-dimethyl-1-vinylhex-4-en-1-yl acetate
DSSTox_CID_6946
DSSTox_RID_78265
DSSTox_GSID_26946
W-108587
Linalyl acetate, 95%, synthetic
CAS-115-95-7
(+)-1,5-Dimethyl-1-vinylhex-4-enyl acetate
LINALYL ACETATER
linaloyl acetate
linalyl acetate terpenes
(-)-S-Linalyl acetate
AC1L1QON
Acetic acid-linalyl ester
Acetic Acid Linalyl Ester
ACMC-1C6LT
1,6-Octadien-3-ol, 3,7-dimethyl-, acetate, (3R)-
EC 204-116-4
1,6-Octadien-3-ol, 3,7-dimethyl-, 3-acetate, (3R)-
3,6-octadien-3-ol acetate
3,6-octadien-3-yl acetate
SCHEMBL58028
(.+/-.)-Linalyl acetate
KSC175K8R
1, 3,7-dimethyl-, acetate
CHEMBL502773
Jsp001150
DTXSID7026946
WLN: 1Y&U3Y1U1OV1
CTK0H5588
FEMA 2636
Linalyl acetate(Linalool acetate)
NSC2138
s141
Linalyl acetate, natural, >=80%
KS-00000YI6
NSC-2138
Linalyl acetate, analytical standard
Tox21_201306
Tox21_303134
ANW-16924
AKOS015901735
Linalyl acetate, >=97%, FCC, FG
LS-2882
RTR-002983
ACM115957|1
3,7-dimethyl-1,6octadien-3-yl acetate
NCGC00164001-01
NCGC00164001-02
NCGC00257047-01
NCGC00258858-01
AC-20000
AK114170
AN-22752
CC-29958
3,7-dimethylocta-1,6-diene-3-yl acetate
TR-002983
FT-0627862
L0049
ST24028245
3,7-Dimethyl-acetate(3R)-1,6-Octadien-3-ol
(+)-3,7-Dimethyl-1,6-octadien-3-ol acetate
1,6-Octadien-3-ol, 3, 7-dimethyl-, acetate
3,7-Dimethyl-1,6-octadien-3-yl acetate 97%
3,7-Dimethyl-1,6-octadien-3-yl acetate, 97%
3,7-Dimethyl-3-acetate(3R)-1,6-Octadien-3-ol
C-34800
I14-14689
1189-35-1

> <TPSA>
26.3

> <TotalAidCount>
299

> <TotalFormalCharge>
0

> <XLogP>
3.3

> <database>
PubChem Compound

> <matchingCount>
176

> <primaryID>
8294

> <queryTranslation>
7628[CompoundID] OR 244[CompoundID] OR 25059[CompoundID] OR 7618[CompoundID] OR 7641[CompoundID] OR 5053[CompoundID] OR 637511[CompoundID] OR 7714[CompoundID] OR 7762[CompoundID] OR 25429[CompoundID]
OR 8842[CompoundID] OR 7794[CompoundID] OR 637566[CompoundID] OR 7843[CompoundID] OR 174[CompoundID] OR 7870[CompoundID] OR 86102[CompoundID] OR 7888[CompoundID] OR 7896[CompoundID] OR 1140[CompoundID
] OR 8042[CompoundID] OR 8058[CompoundID] OR 8078[CompoundID] OR 8087[CompoundID] OR 8117[CompoundID] OR 8133[CompoundID] OR 115224[CompoundID] OR 8175[CompoundID] OR 8194[CompoundID] OR 445639[Compou
ndID] OR 4944[CompoundID] OR 8294[CompoundID] OR 93541[CompoundID] OR 8360[CompoundID] OR 8363[CompoundID] OR 656612[CompoundID] OR 125098[CompoundID] OR 3352[CompoundID] OR 3303913[CompoundID] OR 648
05[CompoundID] OR 31200[CompoundID] OR 1712058[CompoundID] OR 31236[CompoundID] OR 31239[CompoundID] OR 31265[CompoundID] OR 31266[CompoundID] OR 31276[CompoundID] OR 6950273[CompoundID] OR 518659[Com
poundID] OR 14896[CompoundID] OR 14798[CompoundID] OR 14829[CompoundID] OR 14830[CompoundID] OR 8635[CompoundID] OR 23266[CompoundID] OR 4284[CompoundID] OR 8693[CompoundID] OR 22311[CompoundID] OR 87
59[CompoundID] OR 8785[CompoundID] OR 2723810[CompoundID] OR 8857[CompoundID] OR 3893[CompoundID] OR 9936739[CompoundID] OR 516892[CompoundID] OR 5430[CompoundID] OR 9017[CompoundID] OR 15433[Compound
ID] OR 107720[CompoundID] OR 9552081[CompoundID] OR 164825[CompoundID] OR 10275455[CompoundID] OR 16666[CompoundID] OR 9839306[CompoundID] OR 5282227[CompoundID] OR 23676745[CompoundID] OR 32881[Compo
undID] OR 91581[CompoundID] OR 39800[CompoundID] OR 33344[CompoundID] OR 15962220[CompoundID] OR 33528[CompoundID] OR 5365075[CompoundID] OR 62829[CompoundID] OR 162381[CompoundID] OR 517202[CompoundI
D] OR 6433353[CompoundID] OR 2730[CompoundID] OR 5372405[CompoundID] OR 36081[CompoundID] OR 3120[CompoundID] OR 3017[CompoundID] OR 2969[CompoundID] OR 18827[CompoundID] OR 19518[CompoundID] OR 19658
[CompoundID] OR 38283[CompoundID] OR 2758[CompoundID] OR 10112[CompoundID] OR 10340[CompoundID] OR 712[CompoundID] OR 5794[CompoundID] OR 3347[CompoundID] OR 104150[CompoundID] OR 2912[CompoundID] OR
2450[CompoundID] OR 40326[CompoundID] OR 40585[CompoundID] OR 517055[CompoundID] OR 10913[CompoundID] OR 108242[CompoundID] OR 62097[CompoundID] OR 41679[CompoundID] OR 54680676[CompoundID] OR 62118[C
ompoundID] OR 753[CompoundID] OR 1030[CompoundID] OR 23673837[CompoundID] OR 54678504[CompoundID] OR 11442[CompoundID] OR 11463[CompoundID] OR 22230[CompoundID] OR 440917[CompoundID] OR 6054[CompoundI
D] OR 43234[CompoundID] OR 22629[CompoundID] OR 3039[CompoundID] OR 2735067[CompoundID] OR 6144[CompoundID] OR 702[CompoundID] OR 284[CompoundID] OR 176[CompoundID] OR 91688[CompoundID] OR 22947[Compo
undID] OR 47445[CompoundID] OR 1711973[CompoundID] OR 243[CompoundID] OR 10342051[CompoundID] OR 5281875[CompoundID] OR 3776[CompoundID] OR 6224[CompoundID] OR 104926[CompoundID] OR 8755[CompoundID] O
R 338[CompoundID] OR 123622[CompoundID] OR 23954[CompoundID] OR 6334[CompoundID] OR 2537[CompoundID] OR 24261[CompoundID] OR 23665760[CompoundID] OR 83975[CompoundID] OR 784[CompoundID] OR 24437[Compo
undID] OR 5360315[CompoundID] OR 311[CompoundID] OR 6549[CompoundID] OR 107689[CompoundID] OR 17100[CompoundID] OR 24976875[CompoundID] OR 6654[CompoundID] OR 71245[CompoundID] OR 6442842[CompoundID]
OR 62334[CompoundID] OR 54698175[CompoundID] OR 6328154[CompoundID] OR 24762[CompoundID] OR 440950[CompoundID] OR 7017[CompoundID] OR 5281873[CompoundID] OR 323[CompoundID] OR 5281167[CompoundID] OR 7
175[CompoundID] OR 7292[CompoundID] OR 6335613[CompoundID] OR 7456[CompoundID] OR 7462[CompoundID]

> <resultIndex>
115

> <resultRange>
1-176

> <textQuery>
7628,244,25059,7618,7641,5053,637511,7714,7762,25429,8842,7794,637566,7843,174,7870,86102,7888,7896,1140,8042,8058,8078,8087,8117,8133,115224,8175,8194,445639,4944,8294,93541,8360,8363,656612,125098,3
352,3303913,64805,31200,1712058,31236,31239,31265,31266,31276,6950273,518659,14896,14798,14829,14830,8635,23266,4284,8693,22311,8759,8785,2723810,8857,3893,9936739,516892,5430,9017,15433,107720,955208
1,164825,10275455,16666,9839306,5282227,23676745,32881,91581,39800,33344,15962220,33528,5365075,62829,162381,517202,6433353,2730,5372405,36081,3120,3017,2969,18827,19518,19658,38283,2758,10112,10340,7
12,5794,3347,104150,2912,2450,40326,40585,517055,10913,108242,62097,41679,54680676,62118,753,1030,23673837,54678504,11442,11463,22230,440917,6054,43234,22629,3039,2735067,6144,702,284,176,91688,22947,
47445,1711973,243,10342051,5281875,3776,6224,104926,8755,338,123622,23954,6334,2537,24261,23665760,83975,784,24437,5360315,311,6549,107689,17100,24976875,6654,71245,6442842,62334,54698175,6328154,2476
2,440950,7017,5281873,323,5281167,7175,7292,6335613,7456,7462

$$$$
8,194
  SciTegic10191915303D

 37 36  0  0  0  0            999 V2000
    1.2650    7.1820   -0.1020 O   0  0
    0.3230    2.1220   -0.0300 C   0  0
   -0.4580    0.8070   -0.0190 C   0  0
   -0.5890    3.3490   -0.0590 C   0  0
    0.4530   -0.4200    0.0100 C   0  0
    0.1920    4.6640   -0.0700 C   0  0
   -0.3280   -1.7350    0.0210 C   0  0
   -0.7190    5.8910   -0.1020 C   0  0
    0.5830   -2.9620    0.0500 C   0  0
   -0.1980   -4.2770    0.0610 C   0  0
    0.0560    7.1820   -0.1020 C   0  0
    0.7140   -5.5040    0.0910 C   0  0
   -0.0670   -6.8190    0.1010 C   0  0
    1.0270    2.1450   -0.8620 H   0  0
    1.0070    2.1700    0.8170 H   0  0
   -1.1630    0.7840    0.8120 H   0  0
   -1.1430    0.7590   -0.8660 H   0  0
   -1.2930    3.3260    0.7720 H   0  0
   -1.2730    3.3010   -0.9060 H   0  0
    1.1570   -0.3970   -0.8210 H   0  0
    1.1370   -0.3720    0.8570 H   0  0
    0.8980    4.6860   -0.9010 H   0  0
    0.8750    4.7130    0.7780 H   0  0
   -1.0320   -1.7580    0.8530 H   0  0
   -1.0120   -1.7830   -0.8260 H   0  0
   -1.3370    5.8300    0.7940 H   0  0
   -1.3810    5.8570   -0.9670 H   0  0
    1.2880   -2.9390   -0.7810 H   0  0
    1.2680   -2.9140    0.8970 H   0  0
   -0.9020   -4.3000    0.8930 H   0  0
   -0.8820   -4.3250   -0.7860 H   0  0
   -0.4820    8.1180   -0.1020 H   0  0
    1.4180   -5.4810   -0.7410 H   0  0
    1.3980   -5.4560    0.9370 H   0  0
    0.6130   -7.6700    0.1130 H   0  0
   -0.7190   -6.8720    0.9730 H   0  0
   -0.6920   -6.9030   -0.7880 H   0  0
  1 11  2  0
  2  3  1  0
  2  4  1  0
  3  5  1  0
  4  6  1  0
  5  7  1  0
  6  8  1  0
  7  9  1  0
  8 11  1  0
  9 10  1  0
 10 12  1  0
 12 13  1  0
  2 14  1  0
  2 15  1  0
  3 16  1  0
  3 17  1  0
  4 18  1  0
  4 19  1  0
  5 20  1  0
  5 21  1  0
  6 22  1  0
  6 23  1  0
  7 24  1  0
  7 25  1  0
  8 26  1  0
  8 27  1  0
  9 28  1  0
  9 29  1  0
 10 30  1  0
 10 31  1  0
 11 32  1  0
 12 33  1  0
 12 34  1  0
 13 35  1  0
 13 36  1  0
 13 37  1  0
M  END
> <Name>
8,194

> <OBJECTID>
9223372522189422603

> <ActiveAidCount>
0

> <AtomChiralCount>
0

> <AtomChiralDefCount>
0

> <AtomChiralUndefCount>
0

> <BondChiralCount>
0

> <BondChiralDefCount>
0

> <BondChiralUndefCount>
0

> <CID>
8194

> <CanonicalSmiles>
CCCCCCCCCCCC=O

> <Complexity>
99.3

> <CovalentUnitCount>
1

> <CreateDate>
2005/03/26 00:00

> <HeavyAtomCount>
13

> <HydrogenBondAcceptorCount>
1

> <HydrogenBondDonorCount>
0

> <IUPACName>
dodecanal

> <InChI>
InChI=1S/C12H24O/c1-2-3-4-5-6-7-8-9-10-11-12-13/h12H,2-11H2,1H3

> <InChIKey>
HFJRKMMYBMWEAD-UHFFFAOYSA-N

> <IsomericSmiles>
CCCCCCCCCCCC=O

> <IsotopeAtomCount>
0

> <MolecularFormula>
C12H24O

> <MolecularWeight>
184.32

> <RotatableBondCount>
10

> <Smiles>
O=CCCCCCCCCCCC

> <SourceCategory>
Chemical Vendors
Legacy Depositors
Research and Development
Curation Efforts
Governmental Organizations
NIH Initiatives
Subscription Services
Journal Publishers

> <Synonym>
DODECANAL
Dodecyl aldehyde
Lauraldehyde
112-54-9
Lauric aldehyde
Lauryl aldehyde
1-Dodecanal
n-Dodecanal
Dodecanaldehyde
n-Dodecyl aldehyde
n-Lauraldehyde
Duodecylic aldehyde
Laurinaldehyde
1-Dodecyl aldehyde
n-Dodecylic aldehyde
Laurylaldehyde
C-12 aldehyde, lauric
Aldehyde C-12, lauric
C12 aldehyde
Dodecylaldehyde
Aldehyde C12
Lauric aldehyde (natural)
UNII-C42O120SEF
NSC 46128
FEMA No. 2615
Lauraldehyde (8CI)
C-12 lauric aldehyde
EINECS 203-983-6
MFCD00007017
BRN 1703917
AI3-02459
C42O120SEF
CHEBI:27836
HFJRKMMYBMWEAD-UHFFFAOYSA-N
NSC46128
NSC52196
WLN: VH11
Dodecanal, stabilized
Dodecyl aldehyde, 92%
EC 203-983-6
AC1L1QH7
SCHEMBL75196
4-01-00-03380 (Beilstein Handbook Reference)
KSC490K9P
AC1Q2W09
CHEMBL2228373
DTXSID6021589
CTK3J0597
FEMA 2615
KS-00000UME
NSC55212
ZINC1529404
ZX-AT010639
Lauric aldehyde, analytical standard
ANW-42100
LMFA06000071
NSC-46128
NSC-52196
NSC-55212
OR6024
SBB059874
AKOS009158429
ZINC585138964
API0002468
CS-W004301
LS-2876
MCULE-3814557174
RP24485
RTR-002448
TRA0075485
Lauric aldehyde, natural, >=95%, FG
AN-22707
AS-17277
CC-27342
U222
DB-041098
TR-002448
D0979
FT-0625567
ST51046139
C02278
Lauric aldehyde, >=95%, stabilized, FCC, FG
C-30890
J-002791
J-520425
I14-13648
dodecylaldehyde, dodecanal, lauric aldehyde, lauraldehyde, aldehyde C12
InChI=1/C12H24O/c1-2-3-4-5-6-7-8-9-10-11-12-13/h12H,2-11H2,1H

> <TPSA>
17.1

> <TotalAidCount>
14

> <TotalFormalCharge>
0

> <XLogP>
4.9

> <database>
PubChem Compound

> <matchingCount>
176

> <primaryID>
8194

> <queryTranslation>
7628[CompoundID] OR 244[CompoundID] OR 25059[CompoundID] OR 7618[CompoundID] OR 7641[CompoundID] OR 5053[CompoundID] OR 637511[CompoundID] OR 7714[CompoundID] OR 7762[CompoundID] OR 25429[CompoundID]
OR 8842[CompoundID] OR 7794[CompoundID] OR 637566[CompoundID] OR 7843[CompoundID] OR 174[CompoundID] OR 7870[CompoundID] OR 86102[CompoundID] OR 7888[CompoundID] OR 7896[CompoundID] OR 1140[CompoundID
] OR 8042[CompoundID] OR 8058[CompoundID] OR 8078[CompoundID] OR 8087[CompoundID] OR 8117[CompoundID] OR 8133[CompoundID] OR 115224[CompoundID] OR 8175[CompoundID] OR 8194[CompoundID] OR 445639[Compou
ndID] OR 4944[CompoundID] OR 8294[CompoundID] OR 93541[CompoundID] OR 8360[CompoundID] OR 8363[CompoundID] OR 656612[CompoundID] OR 125098[CompoundID] OR 3352[CompoundID] OR 3303913[CompoundID] OR 648
05[CompoundID] OR 31200[CompoundID] OR 1712058[CompoundID] OR 31236[CompoundID] OR 31239[CompoundID] OR 31265[CompoundID] OR 31266[CompoundID] OR 31276[CompoundID] OR 6950273[CompoundID] OR 518659[Com
poundID] OR 14896[CompoundID] OR 14798[CompoundID] OR 14829[CompoundID] OR 14830[CompoundID] OR 8635[CompoundID] OR 23266[CompoundID] OR 4284[CompoundID] OR 8693[CompoundID] OR 22311[CompoundID] OR 87
59[CompoundID] OR 8785[CompoundID] OR 2723810[CompoundID] OR 8857[CompoundID] OR 3893[CompoundID] OR 9936739[CompoundID] OR 516892[CompoundID] OR 5430[CompoundID] OR 9017[CompoundID] OR 15433[Compound
ID] OR 107720[CompoundID] OR 9552081[CompoundID] OR 164825[CompoundID] OR 10275455[CompoundID] OR 16666[CompoundID] OR 9839306[CompoundID] OR 5282227[CompoundID] OR 23676745[CompoundID] OR 32881[Compo
undID] OR 91581[CompoundID] OR 39800[CompoundID] OR 33344[CompoundID] OR 15962220[CompoundID] OR 33528[CompoundID] OR 5365075[CompoundID] OR 62829[CompoundID] OR 162381[CompoundID] OR 517202[CompoundI
D] OR 6433353[CompoundID] OR 2730[CompoundID] OR 5372405[CompoundID] OR 36081[CompoundID] OR 3120[CompoundID] OR 3017[CompoundID] OR 2969[CompoundID] OR 18827[CompoundID] OR 19518[CompoundID] OR 19658
[CompoundID] OR 38283[CompoundID] OR 2758[CompoundID] OR 10112[CompoundID] OR 10340[CompoundID] OR 712[CompoundID] OR 5794[CompoundID] OR 3347[CompoundID] OR 104150[CompoundID] OR 2912[CompoundID] OR
2450[CompoundID] OR 40326[CompoundID] OR 40585[CompoundID] OR 517055[CompoundID] OR 10913[CompoundID] OR 108242[CompoundID] OR 62097[CompoundID] OR 41679[CompoundID] OR 54680676[CompoundID] OR 62118[C
ompoundID] OR 753[CompoundID] OR 1030[CompoundID] OR 23673837[CompoundID] OR 54678504[CompoundID] OR 11442[CompoundID] OR 11463[CompoundID] OR 22230[CompoundID] OR 440917[CompoundID] OR 6054[CompoundI
D] OR 43234[CompoundID] OR 22629[CompoundID] OR 3039[CompoundID] OR 2735067[CompoundID] OR 6144[CompoundID] OR 702[CompoundID] OR 284[CompoundID] OR 176[CompoundID] OR 91688[CompoundID] OR 22947[Compo
undID] OR 47445[CompoundID] OR 1711973[CompoundID] OR 243[CompoundID] OR 10342051[CompoundID] OR 5281875[CompoundID] OR 3776[CompoundID] OR 6224[CompoundID] OR 104926[CompoundID] OR 8755[CompoundID] O
R 338[CompoundID] OR 123622[CompoundID] OR 23954[CompoundID] OR 6334[CompoundID] OR 2537[CompoundID] OR 24261[CompoundID] OR 23665760[CompoundID] OR 83975[CompoundID] OR 784[CompoundID] OR 24437[Compo
undID] OR 5360315[CompoundID] OR 311[CompoundID] OR 6549[CompoundID] OR 107689[CompoundID] OR 17100[CompoundID] OR 24976875[CompoundID] OR 6654[CompoundID] OR 71245[CompoundID] OR 6442842[CompoundID]
OR 62334[CompoundID] OR 54698175[CompoundID] OR 6328154[CompoundID] OR 24762[CompoundID] OR 440950[CompoundID] OR 7017[CompoundID] OR 5281873[CompoundID] OR 323[CompoundID] OR 5281167[CompoundID] OR 7
175[CompoundID] OR 7292[CompoundID] OR 6335613[CompoundID] OR 7456[CompoundID] OR 7462[CompoundID]

> <resultIndex>
116

> <resultRange>
1-176

> <textQuery>
7628,244,25059,7618,7641,5053,637511,7714,7762,25429,8842,7794,637566,7843,174,7870,86102,7888,7896,1140,8042,8058,8078,8087,8117,8133,115224,8175,8194,445639,4944,8294,93541,8360,8363,656612,125098,3
352,3303913,64805,31200,1712058,31236,31239,31265,31266,31276,6950273,518659,14896,14798,14829,14830,8635,23266,4284,8693,22311,8759,8785,2723810,8857,3893,9936739,516892,5430,9017,15433,107720,955208
1,164825,10275455,16666,9839306,5282227,23676745,32881,91581,39800,33344,15962220,33528,5365075,62829,162381,517202,6433353,2730,5372405,36081,3120,3017,2969,18827,19518,19658,38283,2758,10112,10340,7
12,5794,3347,104150,2912,2450,40326,40585,517055,10913,108242,62097,41679,54680676,62118,753,1030,23673837,54678504,11442,11463,22230,440917,6054,43234,22629,3039,2735067,6144,702,284,176,91688,22947,
47445,1711973,243,10342051,5281875,3776,6224,104926,8755,338,123622,23954,6334,2537,24261,23665760,83975,784,24437,5360315,311,6549,107689,17100,24976875,6654,71245,6442842,62334,54698175,6328154,2476
2,440950,7017,5281873,323,5281167,7175,7292,6335613,7456,7462

$$$$
8,175
  SciTegic10191915303D

 31 30  0  0  0  0            999 V2000
    1.3310    5.9070   -0.0820 O   0  0
   -0.5220    2.0750   -0.0400 C   0  0
    0.3890    0.8470   -0.0100 C   0  0
    0.2590    3.3890   -0.0500 C   0  0
   -0.3920   -0.4670    0.0010 C   0  0
   -0.6520    4.6170   -0.0820 C   0  0
    0.5200   -1.6950    0.0300 C   0  0
   -0.2610   -3.0090    0.0410 C   0  0
    0.1230    5.9070   -0.0820 C   0  0
    0.6500   -4.2370    0.0700 C   0  0
   -0.1310   -5.5510    0.0810 C   0  0
   -1.2260    2.0520    0.7920 H   0  0
   -1.2060    2.0260   -0.8870 H   0  0
    1.0940    0.8700   -0.8420 H   0  0
    1.0740    0.8960    0.8370 H   0  0
    0.9650    3.4120   -0.8810 H   0  0
    0.9420    3.4380    0.7980 H   0  0
   -1.0960   -0.4900    0.8320 H   0  0
   -1.0760   -0.5160   -0.8460 H   0  0
   -1.2700    4.5560    0.8140 H   0  0
   -1.3150    4.5820   -0.9470 H   0  0
    1.2240   -1.6720   -0.8020 H   0  0
    1.2040   -1.6460    0.8770 H   0  0
   -0.9660   -3.0320    0.8720 H   0  0
   -0.9460   -3.0580   -0.8060 H   0  0
   -0.4150    6.8440   -0.0820 H   0  0
    1.3540   -4.2140   -0.7610 H   0  0
    1.3340   -4.1880    0.9170 H   0  0
    0.5490   -6.4030    0.0920 H   0  0
   -0.7830   -5.6050    0.9530 H   0  0
   -0.7560   -5.6350   -0.8080 H   0  0
  1  9  2  0
  2  3  1  0
  2  4  1  0
  3  5  1  0
  4  6  1  0
  5  7  1  0
  6  9  1  0
  7  8  1  0
  8 10  1  0
 10 11  1  0
  2 12  1  0
  2 13  1  0
  3 14  1  0
  3 15  1  0
  4 16  1  0
  4 17  1  0
  5 18  1  0
  5 19  1  0
  6 20  1  0
  6 21  1  0
  7 22  1  0
  7 23  1  0
  8 24  1  0
  8 25  1  0
  9 26  1  0
 10 27  1  0
 10 28  1  0
 11 29  1  0
 11 30  1  0
 11 31  1  0
M  END
> <Name>
8,175

> <OBJECTID>
9223372526484389899

> <ActiveAidCount>
1

> <AtomChiralCount>
0

> <AtomChiralDefCount>
0

> <AtomChiralUndefCount>
0

> <BondChiralCount>
0

> <BondChiralDefCount>
0

> <BondChiralUndefCount>
0

> <CID>
8175

> <CanonicalSmiles>
CCCCCCCCCC=O

> <Complexity>
78.9

> <CovalentUnitCount>
1

> <CreateDate>
2004/09/16 00:00

> <HeavyAtomCount>
11

> <HydrogenBondAcceptorCount>
1

> <HydrogenBondDonorCount>
0

> <IUPACName>
decanal

> <InChI>
InChI=1S/C10H20O/c1-2-3-4-5-6-7-8-9-10-11/h10H,2-9H2,1H3

> <InChIKey>
KSMVZQYAVGTKIV-UHFFFAOYSA-N

> <IsomericSmiles>
CCCCCCCCCC=O

> <IsotopeAtomCount>
0

> <MeSHHeading>
decanaldehyde

> <MeSHTerm>
decanaldehyde
n-decyl aldehyde
decanal

> <MolecularFormula>
C10H20O

> <MolecularWeight>
156.26

> <RotatableBondCount>
8

> <Smiles>
O=CCCCCCCCCC

> <SourceCategory>
Chemical Vendors
Legacy Depositors
Research and Development
Curation Efforts
Governmental Organizations
NIH Initiatives
Subscription Services
Journal Publishers

> <Synonym>
Decanal
Decyl aldehyde
112-31-2
Capraldehyde
Caprinaldehyde
Decanaldehyde
Capric aldehyde
n-Decyl aldehyde
1-Decanal
n-Decanal
n-Decaldehyde
1-Decyl aldehyde
Decylic aldehyde
Caprinic aldehyde
Aldehyde C10
C-10 aldehyde
DECALDEHYDE
1-Decanal(mixed isomers)
Decanal (natural)
NSC 6087
UNII-31Z90Q7KQJ
FEMA No. 2362
HSDB 288
EINECS 203-957-4
MFCD00007031
BRN 1362530
AI3-04860
31Z90Q7KQJ
CHEBI:31457
NSC6087
KSMVZQYAVGTKIV-UHFFFAOYSA-N
Decyl aldehyde, 95%
decylaldehyde
Aldehyde C-10
n-DECYLALDEHYDE
AC1L1QFM
AC1Q2VYO
Natural Decanal(C-10)
DSSTox_CID_1553
EC 203-957-4
SCHEMBL2540
WLN: VH9
Decanal, analytical standard
ACMC-1C59Q
DSSTox_RID_76207
N-decanal (capric aldehyde)
decanal (ACD/Name 4.0)
DSSTox_GSID_21553
KSC176G3J
Jsp000949
CHEMBL2228377
DTXSID4021553
CTK0H6334
KSMVZQYAVGTKIV-UHFFFAOYSA-
Decanal, natural, >=97%, FG
Decanal, >=95%, FCC, FG
Decanal, >=98% (GC), liquid
NSC-6087
ZINC1693270
Tox21_302656
ANW-16447
LMFA06000052
SBB058676
AKOS000120018
CS-W013286
EBD2219840
HY-W012570
LS-2367
NE10468
RTR-002413
TRA0073044
NCGC00256769-01
112-81-2
AN-22691
CAS-112-31-2
SC-22770
U211
DB-041074
TR-002413
D0032
FT-0631643
ST24030299
ST51037233
EN300-20146
C12307
A802551
J-002749
S14-1463
I14-13645
InChI=1/C10H20O/c1-2-3-4-5-6-7-8-9-10-11/h10H,2-9H2,1H3

> <TPSA>
17.1

> <TotalAidCount>
224

> <TotalFormalCharge>
0

> <XLogP>
3.8

> <database>
PubChem Compound

> <matchingCount>
176

> <primaryID>
8175

> <queryTranslation>
7628[CompoundID] OR 244[CompoundID] OR 25059[CompoundID] OR 7618[CompoundID] OR 7641[CompoundID] OR 5053[CompoundID] OR 637511[CompoundID] OR 7714[CompoundID] OR 7762[CompoundID] OR 25429[CompoundID]
OR 8842[CompoundID] OR 7794[CompoundID] OR 637566[CompoundID] OR 7843[CompoundID] OR 174[CompoundID] OR 7870[CompoundID] OR 86102[CompoundID] OR 7888[CompoundID] OR 7896[CompoundID] OR 1140[CompoundID
] OR 8042[CompoundID] OR 8058[CompoundID] OR 8078[CompoundID] OR 8087[CompoundID] OR 8117[CompoundID] OR 8133[CompoundID] OR 115224[CompoundID] OR 8175[CompoundID] OR 8194[CompoundID] OR 445639[Compou
ndID] OR 4944[CompoundID] OR 8294[CompoundID] OR 93541[CompoundID] OR 8360[CompoundID] OR 8363[CompoundID] OR 656612[CompoundID] OR 125098[CompoundID] OR 3352[CompoundID] OR 3303913[CompoundID] OR 648
05[CompoundID] OR 31200[CompoundID] OR 1712058[CompoundID] OR 31236[CompoundID] OR 31239[CompoundID] OR 31265[CompoundID] OR 31266[CompoundID] OR 31276[CompoundID] OR 6950273[CompoundID] OR 518659[Com
poundID] OR 14896[CompoundID] OR 14798[CompoundID] OR 14829[CompoundID] OR 14830[CompoundID] OR 8635[CompoundID] OR 23266[CompoundID] OR 4284[CompoundID] OR 8693[CompoundID] OR 22311[CompoundID] OR 87
59[CompoundID] OR 8785[CompoundID] OR 2723810[CompoundID] OR 8857[CompoundID] OR 3893[CompoundID] OR 9936739[CompoundID] OR 516892[CompoundID] OR 5430[CompoundID] OR 9017[CompoundID] OR 15433[Compound
ID] OR 107720[CompoundID] OR 9552081[CompoundID] OR 164825[CompoundID] OR 10275455[CompoundID] OR 16666[CompoundID] OR 9839306[CompoundID] OR 5282227[CompoundID] OR 23676745[CompoundID] OR 32881[Compo
undID] OR 91581[CompoundID] OR 39800[CompoundID] OR 33344[CompoundID] OR 15962220[CompoundID] OR 33528[CompoundID] OR 5365075[CompoundID] OR 62829[CompoundID] OR 162381[CompoundID] OR 517202[CompoundI
D] OR 6433353[CompoundID] OR 2730[CompoundID] OR 5372405[CompoundID] OR 36081[CompoundID] OR 3120[CompoundID] OR 3017[CompoundID] OR 2969[CompoundID] OR 18827[CompoundID] OR 19518[CompoundID] OR 19658
[CompoundID] OR 38283[CompoundID] OR 2758[CompoundID] OR 10112[CompoundID] OR 10340[CompoundID] OR 712[CompoundID] OR 5794[CompoundID] OR 3347[CompoundID] OR 104150[CompoundID] OR 2912[CompoundID] OR
2450[CompoundID] OR 40326[CompoundID] OR 40585[CompoundID] OR 517055[CompoundID] OR 10913[CompoundID] OR 108242[CompoundID] OR 62097[CompoundID] OR 41679[CompoundID] OR 54680676[CompoundID] OR 62118[C
ompoundID] OR 753[CompoundID] OR 1030[CompoundID] OR 23673837[CompoundID] OR 54678504[CompoundID] OR 11442[CompoundID] OR 11463[CompoundID] OR 22230[CompoundID] OR 440917[CompoundID] OR 6054[CompoundI
D] OR 43234[CompoundID] OR 22629[CompoundID] OR 3039[CompoundID] OR 2735067[CompoundID] OR 6144[CompoundID] OR 702[CompoundID] OR 284[CompoundID] OR 176[CompoundID] OR 91688[CompoundID] OR 22947[Compo
undID] OR 47445[CompoundID] OR 1711973[CompoundID] OR 243[CompoundID] OR 10342051[CompoundID] OR 5281875[CompoundID] OR 3776[CompoundID] OR 6224[CompoundID] OR 104926[CompoundID] OR 8755[CompoundID] O
R 338[CompoundID] OR 123622[CompoundID] OR 23954[CompoundID] OR 6334[CompoundID] OR 2537[CompoundID] OR 24261[CompoundID] OR 23665760[CompoundID] OR 83975[CompoundID] OR 784[CompoundID] OR 24437[Compo
undID] OR 5360315[CompoundID] OR 311[CompoundID] OR 6549[CompoundID] OR 107689[CompoundID] OR 17100[CompoundID] OR 24976875[CompoundID] OR 6654[CompoundID] OR 71245[CompoundID] OR 6442842[CompoundID]
OR 62334[CompoundID] OR 54698175[CompoundID] OR 6328154[CompoundID] OR 24762[CompoundID] OR 440950[CompoundID] OR 7017[CompoundID] OR 5281873[CompoundID] OR 323[CompoundID] OR 5281167[CompoundID] OR 7
175[CompoundID] OR 7292[CompoundID] OR 6335613[CompoundID] OR 7456[CompoundID] OR 7462[CompoundID]

> <resultIndex>
117

> <resultRange>
1-176

> <textQuery>
7628,244,25059,7618,7641,5053,637511,7714,7762,25429,8842,7794,637566,7843,174,7870,86102,7888,7896,1140,8042,8058,8078,8087,8117,8133,115224,8175,8194,445639,4944,8294,93541,8360,8363,656612,125098,3
352,3303913,64805,31200,1712058,31236,31239,31265,31266,31276,6950273,518659,14896,14798,14829,14830,8635,23266,4284,8693,22311,8759,8785,2723810,8857,3893,9936739,516892,5430,9017,15433,107720,955208
1,164825,10275455,16666,9839306,5282227,23676745,32881,91581,39800,33344,15962220,33528,5365075,62829,162381,517202,6433353,2730,5372405,36081,3120,3017,2969,18827,19518,19658,38283,2758,10112,10340,7
12,5794,3347,104150,2912,2450,40326,40585,517055,10913,108242,62097,41679,54680676,62118,753,1030,23673837,54678504,11442,11463,22230,440917,6054,43234,22629,3039,2735067,6144,702,284,176,91688,22947,
47445,1711973,243,10342051,5281875,3776,6224,104926,8755,338,123622,23954,6334,2537,24261,23665760,83975,784,24437,5360315,311,6549,107689,17100,24976875,6654,71245,6442842,62334,54698175,6328154,2476
2,440950,7017,5281873,323,5281167,7175,7292,6335613,7456,7462

$$$$
8,133
  SciTegic10191915303D

 22 21  0  0  0  0            999 V2000
    0.7110    0.4240    0.7340 O   0  0
    3.8710    1.2910    2.2320 O   0  0
    2.1150    0.4840    0.8400 C   0  0
    0.2700   -0.2460   -0.4260 C   0  0
    2.4670    1.2280    2.1270 C   0  0
   -1.2580   -0.2480   -0.4260 C   0  0
   -1.8490   -0.9530   -1.6470 C   0  0
   -3.3770   -0.9530   -1.6470 C   0  0
    4.0760    1.7660    3.0550 H   0  0
    2.4980    1.0190   -0.0310 H   0  0
    2.4980   -0.5350    0.8670 H   0  0
    0.6560    0.2890   -1.2930 H   0  0
    0.6560   -1.2660   -0.3970 H   0  0
    2.0840    0.6950    2.9980 H   0  0
    2.0840    2.2500    2.1000 H   0  0
   -1.6440   -0.6860    0.4960 H   0  0
   -1.6440    0.7690   -0.3440 H   0  0
   -1.4630   -0.5160   -2.5680 H   0  0
   -1.4630   -1.9690   -1.7290 H   0  0
   -3.7640   -1.4550   -2.5350 H   0  0
   -3.7640   -1.4550   -0.7600 H   0  0
   -3.7640    0.0660   -1.6470 H   0  0
  1  3  1  0
  1  4  1  0
  2  5  1  0
  3  5  1  0
  4  6  1  0
  6  7  1  0
  7  8  1  0
  2  9  1  0
  3 10  1  0
  3 11  1  0
  4 12  1  0
  4 13  1  0
  5 14  1  0
  5 15  1  0
  6 16  1  0
  6 17  1  0
  7 18  1  0
  7 19  1  0
  8 20  1  0
  8 21  1  0
  8 22  1  0
M  END
> <Name>
8,133

> <OBJECTID>
9223372530779357195

> <ActiveAidCount>
5

> <AtomChiralCount>
0

> <AtomChiralDefCount>
0

> <AtomChiralUndefCount>
0

> <BondChiralCount>
0

> <BondChiralDefCount>
0

> <BondChiralUndefCount>
0

> <CID>
8133

> <CanonicalSmiles>
CCCCOCCO

> <Complexity>
37.5

> <CovalentUnitCount>
1

> <CreateDate>
2005/03/26 00:00

> <HeavyAtomCount>
8

> <HydrogenBondAcceptorCount>
2

> <HydrogenBondDonorCount>
1

> <IUPACName>
2-butoxyethanol

> <InChI>
InChI=1S/C6H14O2/c1-2-3-5-8-6-4-7/h7H,2-6H2,1H3

> <InChIKey>
POAOYUHQDCAZBD-UHFFFAOYSA-N

> <IsomericSmiles>
CCCCOCCO

> <IsotopeAtomCount>
0

> <MeSHHeading>
n-butoxyethanol

> <MeSHTerm>
n-butoxyethanol
n-butoxyethanol sodium salt
ethyleneglycol monobutyl ether
2-butoxyethanol
butylcellosolve

> <MolecularFormula>
C6H14O2

> <MolecularWeight>
118.17

> <RotatableBondCount>
5

> <Smiles>
O(CCCC)CCO

> <SourceCategory>
Chemical Vendors
Legacy Depositors
Research and Development
Curation Efforts
Governmental Organizations
NIH Initiatives
Subscription Services
Journal Publishers

> <Synonym>
2-Butoxyethanol
111-76-2
Butyl cellosolve
Butyl glycol
Butoxyethanol
ETHYLENE GLYCOL MONOBUTYL ETHER
n-Butoxyethanol
Ethanol, 2-butoxy-
Butyl oxitol
Ethylene glycol butyl ether
Glycol butyl ether
Glycol ether eb
3-Oxa-1-heptanol
2-butoxyethan-1-ol
Dowanol EB
2-Butoxy-1-ethanol
Gafcol EB
Butylglycol
Poly-Solv EB
O-Butyl ethylene glycol
Jeffersol eb
Butyl cellu-sol
BUCS
EGBE
Ektasolve EB
Glycol monobutyl ether
Chimec NR
2-Butoxy ethanol
2-Butossi-etanolo
2-Butoxy-aethanol
2-n-Butoxyethanol
Butylcelosolv
Butoksyetylowy alkohol
Ethylene glycol n-butyl ether
EGMBE
Monobutyl glycol ether
Monobutyl ether of ethylene glycol
Ethylene glycol mono-n-butyl ether
2-Butoxy-ethanol
n-Butyl Cellosolve
.beta.-Butoxyethanol
ethyleneglycol monobutyl ether
Butylcelosolv [Czech]
Caswell No. 121
Butyglycol
Monobutyl ethylene glycol ether
Dowanol
2-n-Butoxy-1-ethanol
Ether alcohol
Ethylene glycol, monobutyl ether
Butyl icinol
UNII-I0P9XEZ9WV
g lycol ether eb
beta-Butoxyethanol
Minex BDH
Butylglycol [French,German]
2-Butoxy-aethanol [German]
NSC 60759
2-Butossi-etanolo [Italian]
2-Hydroxyethyl n-butyl ether
Butoxyethanol, 2-
Ektasolve EB solvent
CCRIS 5985
HSDB 538
2-Butoxyethanol (ethylene glycol monobutyl ether)
Butoksyetylowy alkohol [Polish]
Butyl monoether glycol
Ek tasolve EB solvent
Eter monobutilico del etilenglicol
POAOYUHQDCAZBD-UHFFFAOYSA-N
Glycol ether eb acetate
EINECS 203-905-0
UN2369
I0P9XEZ9WV
Butyl 2-hydroxyethyl ether
EPA Pesticide Chemical Code 011501
Ether monobutylique de l'ethyleneglycol
BRN 1732511
AI3-0993
AI3-09903
Eter monobutilico del etilenglicol [Spanish]
Ethylene glycol mono butyl ether
CHEBI:63921
Ether monobutylique de l'ethyleneglycol [French]
MFCD00002884
DSSTox_CID_4097
DSSTox_RID_77286
DSSTox_GSID_24097
Ethylene glycol monobutyl ether (EGBE)(2-Butoxyet)
2-BUTOXY ETHANOL (ETHYLENE GLYCOL MONOBUTYL ETHER)
butylcellosolve
2-Butoxyethanol, 99%, extra pure
2 -Butoxyethanol
CAS-111-76-2
SMR001253761
n-butoxyethanol sodium salt
Butyloxitol
butoxy-ethanol
Polyethylene glycol butyl ether
Bane-Clene
Butyl Glycolether
EB Solvent
Eastman EB solvent
3-oxaheptan-1-ol
Ethanol,2-butoxy-
Polyethylene glycol, monobutyl ester
2-(n-Butoxy)ethanol
BuOCH2CH2OH
ACMC-1BYYD
AC1Q2XKK
ethylenglycolmonobutylether
BH-33 industrial cleaner
EC 203-905-0
EC 500-012-0
AC1L1QC8
2-Butoxy-aethanol(GERMAN)
SCHEMBL15712
KSC492Q6N
MLS002174253
MLS002454362
WLN: Q2O4
Butyglycol(FRENCH, GERMAN)
ethylene glycol-monobutyl ether
Polyoxyethylene monobutyl ether
CHEMBL284588
Poly(oxy-1,2-ethanediyl), alpha-butyl-omega-hydroxy-
QSPL 003
Jsp000882
DTXSID1024097
CTK3J2866
Ethylene glycol butyl ether, 99%
2-butoxyethanol (butyl cellosolve)
KS-00000YV1
NSC60759
ZINC1690437
Tox21_202399
Tox21_300123
ANW-16316
LS-539
NSC-60759
SBB059918
Ethylene glycol butyl ether, >=99%
AKOS009028760
MCULE-4417721312
NE10236
RP19314
RTR-002304
TRA0075661
NCGC00090683-01
NCGC00090683-02
NCGC00090683-03
NCGC00090683-04
NCGC00090683-05
NCGC00254083-01
NCGC00259948-01
AN-19468
AN-43087
BC675581
CJ-28123
TR-002304
B0698
FT-0626297
ST51046186
EN300-19317
Ethylene Glycol Monobutyl Ether Reagent Grade
C19355
73914-EP2269986A1
73914-EP2272849A1
73914-EP2275469A1
73914-EP2287940A1
73914-EP2289965A1
73914-EP2298828A1
73914-EP2301983A1
73914-EP2308926A1
73914-EP2309564A1
73914-EP2371809A1
73914-EP2380873A1
Ethylene glycol butyl ether, analytical standard
Ethylene glycol butyl ether, for synthesis, 99.0%
J-508565
I14-17865
Ethylene glycol butyl ether, SAJ first grade, >=99.0%
Z1259086991
Ethylene glycol butyl ether, spectrophotometric grade, >=99.0%
Ethylene glycol monobutyl ether [UN2369] [Keep away from food]
Ethylene glycol monobutyl ether [UN2369] [Keep away from food]

> <TPSA>
29.5

> <TotalAidCount>
653

> <TotalFormalCharge>
0

> <XLogP>
0.8

> <database>
PubChem Compound

> <matchingCount>
176

> <primaryID>
8133

> <queryTranslation>
7628[CompoundID] OR 244[CompoundID] OR 25059[CompoundID] OR 7618[CompoundID] OR 7641[CompoundID] OR 5053[CompoundID] OR 637511[CompoundID] OR 7714[CompoundID] OR 7762[CompoundID] OR 25429[CompoundID]
OR 8842[CompoundID] OR 7794[CompoundID] OR 637566[CompoundID] OR 7843[CompoundID] OR 174[CompoundID] OR 7870[CompoundID] OR 86102[CompoundID] OR 7888[CompoundID] OR 7896[CompoundID] OR 1140[CompoundID
] OR 8042[CompoundID] OR 8058[CompoundID] OR 8078[CompoundID] OR 8087[CompoundID] OR 8117[CompoundID] OR 8133[CompoundID] OR 115224[CompoundID] OR 8175[CompoundID] OR 8194[CompoundID] OR 445639[Compou
ndID] OR 4944[CompoundID] OR 8294[CompoundID] OR 93541[CompoundID] OR 8360[CompoundID] OR 8363[CompoundID] OR 656612[CompoundID] OR 125098[CompoundID] OR 3352[CompoundID] OR 3303913[CompoundID] OR 648
05[CompoundID] OR 31200[CompoundID] OR 1712058[CompoundID] OR 31236[CompoundID] OR 31239[CompoundID] OR 31265[CompoundID] OR 31266[CompoundID] OR 31276[CompoundID] OR 6950273[CompoundID] OR 518659[Com
poundID] OR 14896[CompoundID] OR 14798[CompoundID] OR 14829[CompoundID] OR 14830[CompoundID] OR 8635[CompoundID] OR 23266[CompoundID] OR 4284[CompoundID] OR 8693[CompoundID] OR 22311[CompoundID] OR 87
59[CompoundID] OR 8785[CompoundID] OR 2723810[CompoundID] OR 8857[CompoundID] OR 3893[CompoundID] OR 9936739[CompoundID] OR 516892[CompoundID] OR 5430[CompoundID] OR 9017[CompoundID] OR 15433[Compound
ID] OR 107720[CompoundID] OR 9552081[CompoundID] OR 164825[CompoundID] OR 10275455[CompoundID] OR 16666[CompoundID] OR 9839306[CompoundID] OR 5282227[CompoundID] OR 23676745[CompoundID] OR 32881[Compo
undID] OR 91581[CompoundID] OR 39800[CompoundID] OR 33344[CompoundID] OR 15962220[CompoundID] OR 33528[CompoundID] OR 5365075[CompoundID] OR 62829[CompoundID] OR 162381[CompoundID] OR 517202[CompoundI
D] OR 6433353[CompoundID] OR 2730[CompoundID] OR 5372405[CompoundID] OR 36081[CompoundID] OR 3120[CompoundID] OR 3017[CompoundID] OR 2969[CompoundID] OR 18827[CompoundID] OR 19518[CompoundID] OR 19658
[CompoundID] OR 38283[CompoundID] OR 2758[CompoundID] OR 10112[CompoundID] OR 10340[CompoundID] OR 712[CompoundID] OR 5794[CompoundID] OR 3347[CompoundID] OR 104150[CompoundID] OR 2912[CompoundID] OR
2450[CompoundID] OR 40326[CompoundID] OR 40585[CompoundID] OR 517055[CompoundID] OR 10913[CompoundID] OR 108242[CompoundID] OR 62097[CompoundID] OR 41679[CompoundID] OR 54680676[CompoundID] OR 62118[C
ompoundID] OR 753[CompoundID] OR 1030[CompoundID] OR 23673837[CompoundID] OR 54678504[CompoundID] OR 11442[CompoundID] OR 11463[CompoundID] OR 22230[CompoundID] OR 440917[CompoundID] OR 6054[CompoundI
D] OR 43234[CompoundID] OR 22629[CompoundID] OR 3039[CompoundID] OR 2735067[CompoundID] OR 6144[CompoundID] OR 702[CompoundID] OR 284[CompoundID] OR 176[CompoundID] OR 91688[CompoundID] OR 22947[Compo
undID] OR 47445[CompoundID] OR 1711973[CompoundID] OR 243[CompoundID] OR 10342051[CompoundID] OR 5281875[CompoundID] OR 3776[CompoundID] OR 6224[CompoundID] OR 104926[CompoundID] OR 8755[CompoundID] O
R 338[CompoundID] OR 123622[CompoundID] OR 23954[CompoundID] OR 6334[CompoundID] OR 2537[CompoundID] OR 24261[CompoundID] OR 23665760[CompoundID] OR 83975[CompoundID] OR 784[CompoundID] OR 24437[Compo
undID] OR 5360315[CompoundID] OR 311[CompoundID] OR 6549[CompoundID] OR 107689[CompoundID] OR 17100[CompoundID] OR 24976875[CompoundID] OR 6654[CompoundID] OR 71245[CompoundID] OR 6442842[CompoundID]
OR 62334[CompoundID] OR 54698175[CompoundID] OR 6328154[CompoundID] OR 24762[CompoundID] OR 440950[CompoundID] OR 7017[CompoundID] OR 5281873[CompoundID] OR 323[CompoundID] OR 5281167[CompoundID] OR 7
175[CompoundID] OR 7292[CompoundID] OR 6335613[CompoundID] OR 7456[CompoundID] OR 7462[CompoundID]

> <resultIndex>
118

> <resultRange>
1-176

> <textQuery>
7628,244,25059,7618,7641,5053,637511,7714,7762,25429,8842,7794,637566,7843,174,7870,86102,7888,7896,1140,8042,8058,8078,8087,8117,8133,115224,8175,8194,445639,4944,8294,93541,8360,8363,656612,125098,3
352,3303913,64805,31200,1712058,31236,31239,31265,31266,31276,6950273,518659,14896,14798,14829,14830,8635,23266,4284,8693,22311,8759,8785,2723810,8857,3893,9936739,516892,5430,9017,15433,107720,955208
1,164825,10275455,16666,9839306,5282227,23676745,32881,91581,39800,33344,15962220,33528,5365075,62829,162381,517202,6433353,2730,5372405,36081,3120,3017,2969,18827,19518,19658,38283,2758,10112,10340,7
12,5794,3347,104150,2912,2450,40326,40585,517055,10913,108242,62097,41679,54680676,62118,753,1030,23673837,54678504,11442,11463,22230,440917,6054,43234,22629,3039,2735067,6144,702,284,176,91688,22947,
47445,1711973,243,10342051,5281875,3776,6224,104926,8755,338,123622,23954,6334,2537,24261,23665760,83975,784,24437,5360315,311,6549,107689,17100,24976875,6654,71245,6442842,62334,54698175,6328154,2476
2,440950,7017,5281873,323,5281167,7175,7292,6335613,7456,7462

$$$$
8,117
  SciTegic10191915303D

 17 16  0  0  0  0            999 V2000
    3.1430   -1.6870    0.0000 O   0  0
    1.7330   -1.6870    0.0000 C   0  0
    1.2540   -0.2360    0.0000 C   0  0
   -0.1560   -0.2360    0.0000 O   0  0
   -0.7110    1.0610    0.0000 C   0  0
   -2.2340    0.9280    0.0000 C   0  0
   -2.7890    2.2230    0.0000 O   0  0
    3.4280   -2.6150    0.0000 H   0  0
    1.3930   -2.2050   -0.8960 H   0  0
    1.3930   -2.2050    0.8960 H   0  0
    1.5940    0.2810    0.8960 H   0  0
    1.5940    0.2810   -0.8960 H   0  0
   -0.3690    1.5760    0.8960 H   0  0
   -0.3690    1.5760   -0.8960 H   0  0
   -2.5760    0.4120   -0.8960 H   0  0
   -2.5760    0.4120    0.8960 H   0  0
   -3.7540    2.1210    0.0000 H   0  0
  1  2  1  0
  2  3  1  0
  3  4  1  0
  4  5  1  0
  5  6  1  0
  6  7  1  0
  1  8  1  0
  2  9  1  0
  2 10  1  0
  3 11  1  0
  3 12  1  0
  5 13  1  0
  5 14  1  0
  6 15  1  0
  6 16  1  0
  7 17  1  0
M  END
> <Name>
8,117

> <OBJECTID>
9223372535074324491

> <ActiveAidCount>
9

> <AtomChiralCount>
0

> <AtomChiralDefCount>
0

> <AtomChiralUndefCount>
0

> <BondChiralCount>
0

> <BondChiralDefCount>
0

> <BondChiralUndefCount>
0

> <CID>
8117

> <CanonicalSmiles>
C(COCCO)O

> <Complexity>
26.1

> <CovalentUnitCount>
1

> <CreateDate>
2005/03/26 00:00

> <HeavyAtomCount>
7

> <HydrogenBondAcceptorCount>
3

> <HydrogenBondDonorCount>
2

> <IUPACName>
2-(2-hydroxyethoxy)ethanol

> <InChI>
InChI=1S/C4H10O3/c5-1-3-7-4-2-6/h5-6H,1-4H2

> <InChIKey>
MTHSVFCYNBDYFN-UHFFFAOYSA-N

> <IsomericSmiles>
C(COCCO)O

> <IsotopeAtomCount>
0

> <MeSHHeading>
diethylene glycol

> <MeSHTerm>
diethylene glycol

> <MolecularFormula>
C4H10O3

> <MolecularWeight>
106.12

> <RotatableBondCount>
4

> <Smiles>
OCCOCCO

> <SourceCategory>
Chemical Vendors
Legacy Depositors
Research and Development
Curation Efforts
Governmental Organizations
NIH Initiatives
Subscription Services
Journal Publishers

> <Synonym>
DIETHYLENE GLYCOL
111-46-6
2,2'-Oxydiethanol
Diglycol
Bis(2-hydroxyethyl) ether
Diethylenglykol
2-Hydroxyethyl ether
2,2'-Oxybisethanol
Digol
2-(2-Hydroxyethoxy)ethanol
Ethanol, 2,2'-oxybis-
Digenos
Dicol
Brecolane ndg
Glycol ether
Deactivator E
Dissolvant APV
Ethylene diglycol
2,2'-Oxyethanol
Diethyleneglycol
1,5-Dihydroxy-3-oxapentane
TL4N
3-Oxapentane-1,5-diol
Dihydroxydiethyl ether
2,2'-0xydiethanol
Bis(beta-hydroxyethyl) ether
DI(HYDROXYETHYL)ETHER
2,2'-Dihydroxydiethyl ether
2-(2-hydroxyethoxy)ethan-1-ol
Ethanol, 2,2'-oxydi-
beta,beta'-Dihydroxydiethyl ether
2,2'-Dihydroxyethyl ether
MFCD00002882
3-Oxapentamethylene-1,5-diol
Caswell No. 338A
Diethylenglykol [Czech]
DEG
Deactivator H
3-Oxa-1,5-pentanediol
diethylene-glycol
NSC 36391
HSDB 69
2,2'-Oxybis(ethan-1-ol)
CCRIS 2193
Carbowax 6000
UNII-61BR964293
2,2'-Oxybis[Ethanol]
Diethylene Glycol (DEG)
EINECS 203-872-2
EPA Pesticide Chemical Code 338200
BRN 0969209
2,2-Di(hydroxyethyl) ether
AI3-08416
Bis(.beta.-hydroxyethyl) ether
CHEBI:46807
MTHSVFCYNBDYFN-UHFFFAOYSA-N
.beta.,.beta.'-Dihydroxydiethyl ether
DSSTox_CID_462
61BR964293
DSSTox_RID_75605
DSSTox_GSID_20462
Diethylene glycol, 99%, extra pure
CAS-111-46-6
diehyleneglycol
diethylenglycol
diethyene glycol
di-ethylene glycol
2,2-Oxydiethanol
2-hydroxyethylether
1KA
Dihydroxyethylet her
Ethanol,2'-oxydi-
Ethanol,2'-oxybis-
2,2' -oxybisethanol
2,2'-Oxybis[ethanol
EGL-EGL
TentaGel&trade; S-OH
Glycol hydroxyethyl ether
2, 2-Oxybis[ethanol]
AC1L1QAZ
bis(2-hydroxyethyl)ether
Diethylene glycol, 99%
ACMC-1C0DC
bis-(2-hydroxyethyl)ether
EC 203-872-2
AC1Q7DA0
SCHEMBL1462
HO(CH2CH2O)2H
WLN: Q2O2Q
4-01-00-02390 (Beilstein Handbook Reference)
KSC176A3B
MLS001055330
BIDD:ER0301
Glycol, polyethylene (200)
Glycol, polyethylene (400)
Glycol, polyethylene (600)
2-(2-Hydroxy-ethoxy)-ethanol
Diethylene Glycol Reagent Grade
CHEMBL1235226
DTXSID8020462
HO(CH2)2O(CH2)2OH
CTK0H6030
2-(2-hydroxyethoxyl)ethan-1-ol
Diethylene glycol, LR, >=99%
HMS2270G18
NSC32855
NSC32856
NSC35744
NSC35745
NSC35746
NSC36391
ZINC1668756
Tox21_201616
Tox21_300064
.beta.,.beta.'-Dihydroxyethyl ether
ANW-16283
LS-534
NSC-32855
NSC-32856
NSC-35744
NSC-35745
NSC-35746
NSC-36391
STL280303
Diethylene glycol, analytical standard
AKOS000120101
FS-3891
MCULE-1531783732
RP18862
RTR-002265
2,2'-Oxydiethanol [Diethylene glycol]
NCGC00090703-01
NCGC00090703-02
NCGC00090703-03
NCGC00253996-01
NCGC00259165-01
AJ-29110
AN-43072
BP-20527
CJ-06090
CJ-27072
Diethylene glycol, ReagentPlus(R), 99%
M295
SC-79348
SMR000112132
TR-002265
CS-0014055
D0495
FT-0624892
ST24027233
3528-EP2308562A2
C14689
Diethylene glycol, BioUltra, >=99.0% (GC)
Diethylene glycol, SAJ first grade, >=98.0%
25474-EP2377844A2
25819-EP2269996A1
25819-EP2270017A1
25819-EP2270101A1
25819-EP2272849A1
25819-EP2277861A1
25819-EP2284165A1
25819-EP2292597A1
25819-EP2295399A2
25819-EP2295438A1
25819-EP2301941A1
25819-EP2302132A1
25819-EP2308510A1
25819-EP2308828A2
25819-EP2308857A1
25819-EP2308858A1
25819-EP2308865A1
25819-EP2308877A1
25819-EP2311816A1
25819-EP2311817A1
25819-EP2315303A1
25819-EP2371809A1
25819-EP2371811A2
25819-EP2372017A1
25819-EP2374895A1
25819-EP2380568A1
25819-EP2380873A1
133099-EP2284154A1
133099-EP2295438A1
152997-EP2284166A1
152997-EP2289881A1
176603-EP2284154A1
Diethylene glycol, Vetec(TM) reagent grade, 98%
J-002580
O-(2-Hydroxyethyl)polyethylene glycol polymer-bound
F1908-0125
9BAE4479-A6DD-4206-83C1-AB625AB87665
Diethylene glycol, puriss. p.a., >=99.0% (GC), colorless
InChI=1/C4H10O3/c5-1-3-7-4-2-6/h5-6H,1-4H
(Cys(Acm)2 inverted exclamation mark currency7)-a-CGRP (human)
Diethylene glycol, United States Pharmacopeia (USP) Reference Standard
diethylene glycol; ethylene diglycol; diglycol; 2,2'-oxybisethanol; 3-oxa-1,5-pentanedioldihydroxy diethyl ether

> <TPSA>
49.7

> <TotalAidCount>
769

> <TotalFormalCharge>
0

> <XLogP>
-1.3

> <database>
PubChem Compound

> <matchingCount>
176

> <primaryID>
8117

> <queryTranslation>
7628[CompoundID] OR 244[CompoundID] OR 25059[CompoundID] OR 7618[CompoundID] OR 7641[CompoundID] OR 5053[CompoundID] OR 637511[CompoundID] OR 7714[CompoundID] OR 7762[CompoundID] OR 25429[CompoundID]
OR 8842[CompoundID] OR 7794[CompoundID] OR 637566[CompoundID] OR 7843[CompoundID] OR 174[CompoundID] OR 7870[CompoundID] OR 86102[CompoundID] OR 7888[CompoundID] OR 7896[CompoundID] OR 1140[CompoundID
] OR 8042[CompoundID] OR 8058[CompoundID] OR 8078[CompoundID] OR 8087[CompoundID] OR 8117[CompoundID] OR 8133[CompoundID] OR 115224[CompoundID] OR 8175[CompoundID] OR 8194[CompoundID] OR 445639[Compou
ndID] OR 4944[CompoundID] OR 8294[CompoundID] OR 93541[CompoundID] OR 8360[CompoundID] OR 8363[CompoundID] OR 656612[CompoundID] OR 125098[CompoundID] OR 3352[CompoundID] OR 3303913[CompoundID] OR 648
05[CompoundID] OR 31200[CompoundID] OR 1712058[CompoundID] OR 31236[CompoundID] OR 31239[CompoundID] OR 31265[CompoundID] OR 31266[CompoundID] OR 31276[CompoundID] OR 6950273[CompoundID] OR 518659[Com
poundID] OR 14896[CompoundID] OR 14798[CompoundID] OR 14829[CompoundID] OR 14830[CompoundID] OR 8635[CompoundID] OR 23266[CompoundID] OR 4284[CompoundID] OR 8693[CompoundID] OR 22311[CompoundID] OR 87
59[CompoundID] OR 8785[CompoundID] OR 2723810[CompoundID] OR 8857[CompoundID] OR 3893[CompoundID] OR 9936739[CompoundID] OR 516892[CompoundID] OR 5430[CompoundID] OR 9017[CompoundID] OR 15433[Compound
ID] OR 107720[CompoundID] OR 9552081[CompoundID] OR 164825[CompoundID] OR 10275455[CompoundID] OR 16666[CompoundID] OR 9839306[CompoundID] OR 5282227[CompoundID] OR 23676745[CompoundID] OR 32881[Compo
undID] OR 91581[CompoundID] OR 39800[CompoundID] OR 33344[CompoundID] OR 15962220[CompoundID] OR 33528[CompoundID] OR 5365075[CompoundID] OR 62829[CompoundID] OR 162381[CompoundID] OR 517202[CompoundI
D] OR 6433353[CompoundID] OR 2730[CompoundID] OR 5372405[CompoundID] OR 36081[CompoundID] OR 3120[CompoundID] OR 3017[CompoundID] OR 2969[CompoundID] OR 18827[CompoundID] OR 19518[CompoundID] OR 19658
[CompoundID] OR 38283[CompoundID] OR 2758[CompoundID] OR 10112[CompoundID] OR 10340[CompoundID] OR 712[CompoundID] OR 5794[CompoundID] OR 3347[CompoundID] OR 104150[CompoundID] OR 2912[CompoundID] OR
2450[CompoundID] OR 40326[CompoundID] OR 40585[CompoundID] OR 517055[CompoundID] OR 10913[CompoundID] OR 108242[CompoundID] OR 62097[CompoundID] OR 41679[CompoundID] OR 54680676[CompoundID] OR 62118[C
ompoundID] OR 753[CompoundID] OR 1030[CompoundID] OR 23673837[CompoundID] OR 54678504[CompoundID] OR 11442[CompoundID] OR 11463[CompoundID] OR 22230[CompoundID] OR 440917[CompoundID] OR 6054[CompoundI
D] OR 43234[CompoundID] OR 22629[CompoundID] OR 3039[CompoundID] OR 2735067[CompoundID] OR 6144[CompoundID] OR 702[CompoundID] OR 284[CompoundID] OR 176[CompoundID] OR 91688[CompoundID] OR 22947[Compo
undID] OR 47445[CompoundID] OR 1711973[CompoundID] OR 243[CompoundID] OR 10342051[CompoundID] OR 5281875[CompoundID] OR 3776[CompoundID] OR 6224[CompoundID] OR 104926[CompoundID] OR 8755[CompoundID] O
R 338[CompoundID] OR 123622[CompoundID] OR 23954[CompoundID] OR 6334[CompoundID] OR 2537[CompoundID] OR 24261[CompoundID] OR 23665760[CompoundID] OR 83975[CompoundID] OR 784[CompoundID] OR 24437[Compo
undID] OR 5360315[CompoundID] OR 311[CompoundID] OR 6549[CompoundID] OR 107689[CompoundID] OR 17100[CompoundID] OR 24976875[CompoundID] OR 6654[CompoundID] OR 71245[CompoundID] OR 6442842[CompoundID]
OR 62334[CompoundID] OR 54698175[CompoundID] OR 6328154[CompoundID] OR 24762[CompoundID] OR 440950[CompoundID] OR 7017[CompoundID] OR 5281873[CompoundID] OR 323[CompoundID] OR 5281167[CompoundID] OR 7
175[CompoundID] OR 7292[CompoundID] OR 6335613[CompoundID] OR 7456[CompoundID] OR 7462[CompoundID]

> <resultIndex>
119

> <resultRange>
1-176

> <textQuery>
7628,244,25059,7618,7641,5053,637511,7714,7762,25429,8842,7794,637566,7843,174,7870,86102,7888,7896,1140,8042,8058,8078,8087,8117,8133,115224,8175,8194,445639,4944,8294,93541,8360,8363,656612,125098,3
352,3303913,64805,31200,1712058,31236,31239,31265,31266,31276,6950273,518659,14896,14798,14829,14830,8635,23266,4284,8693,22311,8759,8785,2723810,8857,3893,9936739,516892,5430,9017,15433,107720,955208
1,164825,10275455,16666,9839306,5282227,23676745,32881,91581,39800,33344,15962220,33528,5365075,62829,162381,517202,6433353,2730,5372405,36081,3120,3017,2969,18827,19518,19658,38283,2758,10112,10340,7
12,5794,3347,104150,2912,2450,40326,40585,517055,10913,108242,62097,41679,54680676,62118,753,1030,23673837,54678504,11442,11463,22230,440917,6054,43234,22629,3039,2735067,6144,702,284,176,91688,22947,
47445,1711973,243,10342051,5281875,3776,6224,104926,8755,338,123622,23954,6334,2537,24261,23665760,83975,784,24437,5360315,311,6549,107689,17100,24976875,6654,71245,6442842,62334,54698175,6328154,2476
2,440950,7017,5281873,323,5281167,7175,7292,6335613,7456,7462

$$$$
8,087
  SciTegic10191915303D

 23 22  0  0  1  0            999 V2000
    0.0720   -0.0430   -0.0160 O   0  0
    0.5190   -3.2520    1.5530 O   0  0
    0.3630    2.6640   -2.3670 O   0  0
    0.1090   -1.9040    1.4710 C   0  0  3  0  0  0
   -0.1820    1.9650   -1.2740 C   0  0  3  0  0  0
    0.6290   -1.3280    0.1520 C   0  0
    0.4840    0.5900   -1.2050 C   0  0
    0.6480   -1.1640    2.6930 C   0  0
   -1.6960    1.8770   -1.4650 C   0  0
    0.0250   -3.7420    0.8790 H   0  0
    0.0780    3.5880   -2.2870 H   0  0
   -0.9810   -1.9220    1.4800 H   0  0
    0.0230    2.5370   -0.3670 H   0  0
    1.7130   -1.2260    0.1780 H   0  0
    0.3160   -1.9450   -0.6880 H   0  0
    1.5700    0.6880   -1.1780 H   0  0
    0.1720   -0.0310   -2.0450 H   0  0
    0.3160   -1.6210    3.6250 H   0  0
    0.3160   -0.1250    2.6930 H   0  0
    1.7380   -1.1640    2.6930 H   0  0
   -2.1330    2.8730   -1.5370 H   0  0
   -1.9380    1.3170   -2.3670 H   0  0
   -2.1620    1.3690   -0.6210 H   0  0
  1  6  1  0
  1  7  1  0
  2  4  1  0
  3  5  1  0
  4  6  1  0
  4  8  1  0
  5  7  1  0
  5  9  1  0
  2 10  1  0
  3 11  1  0
  4 12  1  0
  5 13  1  0
  6 14  1  0
  6 15  1  0
  7 16  1  0
  7 17  1  0
  8 18  1  0
  8 19  1  0
  8 20  1  0
  9 21  1  0
  9 22  1  0
  9 23  1  0
M  END
> <Name>
8,087

> <OBJECTID>
9223372539369291787

> <ActiveAidCount>
0

> <AtomChiralCount>
2

> <AtomChiralDefCount>
0

> <AtomChiralUndefCount>
2

> <BondChiralCount>
0

> <BondChiralDefCount>
0

> <BondChiralUndefCount>
0

> <CID>
8087

> <CanonicalSmiles>
CC(COCC(C)O)O

> <Complexity>
57.3

> <CovalentUnitCount>
1

> <CreateDate>
2005/03/26 00:00

> <HeavyAtomCount>
9

> <HydrogenBondAcceptorCount>
3

> <HydrogenBondDonorCount>
2

> <IUPACName>
1-(2-hydroxypropoxy)propan-2-ol

> <InChI>
InChI=1S/C6H14O3/c1-5(7)3-9-4-6(2)8/h5-8H,3-4H2,1-2H3

> <InChIKey>
AZUXKVXMJOIAOF-UHFFFAOYSA-N

> <IsomericSmiles>
CC(COCC(C)O)O

> <IsotopeAtomCount>
0

> <MolecularFormula>
C6H14O3

> <MolecularWeight>
134.17

> <RotatableBondCount>
4

> <Smiles>
O(CC(C)O)CC(C)O

> <SourceCategory>
Legacy Depositors
Chemical Vendors
Curation Efforts
Governmental Organizations
Subscription Services
Journal Publishers
Research and Development
NIH Initiatives

> <Synonym>
110-98-5
1,1'-OXYDI-2-PROPANOL
1,1'-Oxydipropan-2-ol
2-Propanol, 1,1'-oxybis-
Bis(2-hydroxypropyl) ether
1,1-Oxydi-2-Propanol
4-Oxaheptane-2,6-diol
1,1'-Oxybis-2-propanol
2,2'-Dihydroxydipropyl ether
2-Propanol, 1,1'-oxydi-
1,1'-Oxybis(propan-2-ol)
NIAX catalyst D-19
1,1'-Dimethyldiethylene glycol
NSC 8688
HSDB 2854
1-(2-hydroxypropoxy)propan-2-ol
EINECS 203-821-4
BRN 1698372
AI3-01233
DSSTox_CID_6863
DSSTox_RID_78229
DSSTox_GSID_26863
W-109061
CAS-110-98-5
ACMC-1BZRZ
2-Propanol,1'-oxydi-
2-Propanol,1'-oxybis-
Di-1,2-propylene glycol
AC1L1Q8H
Di-(2-hydroxypropyl)-ether
SCHEMBL35798
1,1-Oxybis(propan-2-ol)
2,2'-Dihydroxyisopropyl ether
CHEMBL3182176
Dipropylene Glycol Reagent Grade
DTXSID7026863
CTK8C6227
KS-00000YUQ
NSC8688
AZUXKVXMJOIAOF-UHFFFAOYSA-N
WLN: QY1 & 1O1YQ1
NSC-8688
Tox21_201485
Tox21_303094
FCH917305
MFCD00004538
AKOS006229360
RL00450
RTR-002214
NCGC00249053-01
NCGC00249053-02
NCGC00257025-01
NCGC00259036-01
AK305469
AN-22636
CC-02667
O364
LS-122605
TR-002214
FT-0625301
C-34198
I14-14157

> <TPSA>
49.7

> <TotalAidCount>
210

> <TotalFormalCharge>
0

> <XLogP>
-0.4

> <database>
PubChem Compound

> <matchingCount>
176

> <primaryID>
8087

> <queryTranslation>
7628[CompoundID] OR 244[CompoundID] OR 25059[CompoundID] OR 7618[CompoundID] OR 7641[CompoundID] OR 5053[CompoundID] OR 637511[CompoundID] OR 7714[CompoundID] OR 7762[CompoundID] OR 25429[CompoundID]
OR 8842[CompoundID] OR 7794[CompoundID] OR 637566[CompoundID] OR 7843[CompoundID] OR 174[CompoundID] OR 7870[CompoundID] OR 86102[CompoundID] OR 7888[CompoundID] OR 7896[CompoundID] OR 1140[CompoundID
] OR 8042[CompoundID] OR 8058[CompoundID] OR 8078[CompoundID] OR 8087[CompoundID] OR 8117[CompoundID] OR 8133[CompoundID] OR 115224[CompoundID] OR 8175[CompoundID] OR 8194[CompoundID] OR 445639[Compou
ndID] OR 4944[CompoundID] OR 8294[CompoundID] OR 93541[CompoundID] OR 8360[CompoundID] OR 8363[CompoundID] OR 656612[CompoundID] OR 125098[CompoundID] OR 3352[CompoundID] OR 3303913[CompoundID] OR 648
05[CompoundID] OR 31200[CompoundID] OR 1712058[CompoundID] OR 31236[CompoundID] OR 31239[CompoundID] OR 31265[CompoundID] OR 31266[CompoundID] OR 31276[CompoundID] OR 6950273[CompoundID] OR 518659[Com
poundID] OR 14896[CompoundID] OR 14798[CompoundID] OR 14829[CompoundID] OR 14830[CompoundID] OR 8635[CompoundID] OR 23266[CompoundID] OR 4284[CompoundID] OR 8693[CompoundID] OR 22311[CompoundID] OR 87
59[CompoundID] OR 8785[CompoundID] OR 2723810[CompoundID] OR 8857[CompoundID] OR 3893[CompoundID] OR 9936739[CompoundID] OR 516892[CompoundID] OR 5430[CompoundID] OR 9017[CompoundID] OR 15433[Compound
ID] OR 107720[CompoundID] OR 9552081[CompoundID] OR 164825[CompoundID] OR 10275455[CompoundID] OR 16666[CompoundID] OR 9839306[CompoundID] OR 5282227[CompoundID] OR 23676745[CompoundID] OR 32881[Compo
undID] OR 91581[CompoundID] OR 39800[CompoundID] OR 33344[CompoundID] OR 15962220[CompoundID] OR 33528[CompoundID] OR 5365075[CompoundID] OR 62829[CompoundID] OR 162381[CompoundID] OR 517202[CompoundI
D] OR 6433353[CompoundID] OR 2730[CompoundID] OR 5372405[CompoundID] OR 36081[CompoundID] OR 3120[CompoundID] OR 3017[CompoundID] OR 2969[CompoundID] OR 18827[CompoundID] OR 19518[CompoundID] OR 19658
[CompoundID] OR 38283[CompoundID] OR 2758[CompoundID] OR 10112[CompoundID] OR 10340[CompoundID] OR 712[CompoundID] OR 5794[CompoundID] OR 3347[CompoundID] OR 104150[CompoundID] OR 2912[CompoundID] OR
2450[CompoundID] OR 40326[CompoundID] OR 40585[CompoundID] OR 517055[CompoundID] OR 10913[CompoundID] OR 108242[CompoundID] OR 62097[CompoundID] OR 41679[CompoundID] OR 54680676[CompoundID] OR 62118[C
ompoundID] OR 753[CompoundID] OR 1030[CompoundID] OR 23673837[CompoundID] OR 54678504[CompoundID] OR 11442[CompoundID] OR 11463[CompoundID] OR 22230[CompoundID] OR 440917[CompoundID] OR 6054[CompoundI
D] OR 43234[CompoundID] OR 22629[CompoundID] OR 3039[CompoundID] OR 2735067[CompoundID] OR 6144[CompoundID] OR 702[CompoundID] OR 284[CompoundID] OR 176[CompoundID] OR 91688[CompoundID] OR 22947[Compo
undID] OR 47445[CompoundID] OR 1711973[CompoundID] OR 243[CompoundID] OR 10342051[CompoundID] OR 5281875[CompoundID] OR 3776[CompoundID] OR 6224[CompoundID] OR 104926[CompoundID] OR 8755[CompoundID] O
R 338[CompoundID] OR 123622[CompoundID] OR 23954[CompoundID] OR 6334[CompoundID] OR 2537[CompoundID] OR 24261[CompoundID] OR 23665760[CompoundID] OR 83975[CompoundID] OR 784[CompoundID] OR 24437[Compo
undID] OR 5360315[CompoundID] OR 311[CompoundID] OR 6549[CompoundID] OR 107689[CompoundID] OR 17100[CompoundID] OR 24976875[CompoundID] OR 6654[CompoundID] OR 71245[CompoundID] OR 6442842[CompoundID]
OR 62334[CompoundID] OR 54698175[CompoundID] OR 6328154[CompoundID] OR 24762[CompoundID] OR 440950[CompoundID] OR 7017[CompoundID] OR 5281873[CompoundID] OR 323[CompoundID] OR 5281167[CompoundID] OR 7
175[CompoundID] OR 7292[CompoundID] OR 6335613[CompoundID] OR 7456[CompoundID] OR 7462[CompoundID]

> <resultIndex>
120

> <resultRange>
1-176

> <textQuery>
7628,244,25059,7618,7641,5053,637511,7714,7762,25429,8842,7794,637566,7843,174,7870,86102,7888,7896,1140,8042,8058,8078,8087,8117,8133,115224,8175,8194,445639,4944,8294,93541,8360,8363,656612,125098,3
352,3303913,64805,31200,1712058,31236,31239,31265,31266,31276,6950273,518659,14896,14798,14829,14830,8635,23266,4284,8693,22311,8759,8785,2723810,8857,3893,9936739,516892,5430,9017,15433,107720,955208
1,164825,10275455,16666,9839306,5282227,23676745,32881,91581,39800,33344,15962220,33528,5365075,62829,162381,517202,6433353,2730,5372405,36081,3120,3017,2969,18827,19518,19658,38283,2758,10112,10340,7
12,5794,3347,104150,2912,2450,40326,40585,517055,10913,108242,62097,41679,54680676,62118,753,1030,23673837,54678504,11442,11463,22230,440917,6054,43234,22629,3039,2735067,6144,702,284,176,91688,22947,
47445,1711973,243,10342051,5281875,3776,6224,104926,8755,338,123622,23954,6334,2537,24261,23665760,83975,784,24437,5360315,311,6549,107689,17100,24976875,6654,71245,6442842,62334,54698175,6328154,2476
2,440950,7017,5281873,323,5281167,7175,7292,6335613,7456,7462

$$$$
8,078
  SciTegic10191915303D

 18 18  0  0  0  0            999 V2000
   -0.6210   -1.2990    0.3610 C   0  0
   -1.4800   -0.0960   -0.0490 C   0  0
   -0.7790    1.2350    0.2680 C   0  0
    0.6210    1.2990   -0.3610 C   0  0
    1.4800    0.0940    0.0490 C   0  0
    0.7770   -1.2340   -0.2690 C   0  0
   -0.5270   -1.3240    1.4470 H   0  0
   -1.1150   -2.2260    0.0720 H   0  0
   -1.6890   -0.1480   -1.1170 H   0  0
   -2.4450   -0.1370    0.4570 H   0  0
   -0.6930    1.3500    1.3500 H   0  0
   -1.3850    2.0680   -0.0860 H   0  0
    1.1170    2.2270   -0.0720 H   0  0
    0.5290    1.3240   -1.4470 H   0  0
    2.4450    0.1370   -0.4550 H   0  0
    1.6880    0.1470    1.1190 H   0  0
    1.3850   -2.0680    0.0820 H   0  0
    0.6930   -1.3480   -1.3500 H   0  0
  1  2  1  0
  1  6  1  0
  2  3  1  0
  3  4  1  0
  4  5  1  0
  5  6  1  0
  1  7  1  0
  1  8  1  0
  2  9  1  0
  2 10  1  0
  3 11  1  0
  3 12  1  0
  4 13  1  0
  4 14  1  0
  5 15  1  0
  5 16  1  0
  6 17  1  0
  6 18  1  0
M  END
> <Name>
8,078

> <OBJECTID>
9223372543664259083

> <ActiveAidCount>
6

> <AtomChiralCount>
0

> <AtomChiralDefCount>
0

> <AtomChiralUndefCount>
0

> <BondChiralCount>
0

> <BondChiralDefCount>
0

> <BondChiralUndefCount>
0

> <CID>
8078

> <CanonicalSmiles>
C1CCCCC1

> <Complexity>
15.5

> <CovalentUnitCount>
1

> <CreateDate>
2004/09/16 00:00

> <HeavyAtomCount>
6

> <HydrogenBondAcceptorCount>
0

> <HydrogenBondDonorCount>
0

> <IUPACName>
cyclohexane

> <InChI>
InChI=1S/C6H12/c1-2-4-6-5-3-1/h1-6H2

> <InChIKey>
XDTMQSROBMDMFD-UHFFFAOYSA-N

> <IsomericSmiles>
C1CCCCC1

> <IsotopeAtomCount>
0

> <MeSHHeading>
Cyclohexane

> <MeSHTerm>
Cyclohexane

> <MolecularFormula>
C6H12

> <MolecularWeight>
84.16

> <RotatableBondCount>
0

> <Smiles>
C1CCCCC1

> <SourceCategory>
Chemical Vendors
Legacy Depositors
Research and Development
Curation Efforts
Governmental Organizations
NIH Initiatives
Subscription Services
Journal Publishers

> <Synonym>
CYCLOHEXANE
Hexamethylene
110-82-7
Hexahydrobenzene
Hexanaphthene
Cyclohexan
Cykloheksan
Cicloesano
Cyclohexaan
Benzene, hexahydro-
Benzenehexahydride
Polycyclohexane
hexahydro-Benzene
Poly(cyclohexane)
RCRA waste number U056
Cyclohexaan [Dutch]
Cyclohexan [German]
Cicloesano [Italian]
Cykloheksan [Polish]
Caswell No. 269
UNII-48K5MKG32S
MFCD00003814
HSDB 60
NSC 406835
CCRIS 3928
Cyclohexane, oxidized, non-volatile residue
EINECS 203-806-2
UN1145
RCRA waste no. U056
EPA Pesticide Chemical Code 025901
AI3-08222
48K5MKG32S
CHEBI:29005
XDTMQSROBMDMFD-UHFFFAOYSA-N
Cyclohexane, ACS reagent
Cyclohexane, HPLC Grade
Cyclohexane, 99+%, pure
Ciclohexano
Cyclohexane, 99.5%, extra pure
Cyclohexane, 99.8%, for HPLC
Cyclohexane, 99.5%, for analysis
Cyclohexane, ACS reagent, >=99%
Cyclohexane, 99+%, for spectroscopy
Cyclohexane, for HPLC, >=99.7%
Cyclohexane, 99+%, for spectroscopy ACS
Cyclohexane, for pesticide residue analysis
Cyclohexane, 99.5%, Extra Dry, AcroSeal(R)
cylcohexane
cylohexane
Cyclohexane, puriss. p.a., ACS reagent, >=99.5% (GC)
Zyklohexan
cyclo-hexane
Cyclohexane, 99.5%, Extra Dry over Molecular Sieve, AcroSeal(R)
EINECS 270-147-5
Cyclohexane HPLC grade
Cyclohexane, for HPLC
Cyclohexane, homopolymer
Cyclohexane, ACS Grade
ACMC-1BUC3
CYCLOHEXANE- D12
DSSTox_CID_1923
bmse000545
WLN: L6TJ
EC 203-806-2
EC 270-147-5
AC1L1Q7Q
DSSTox_RID_76404
DSSTox_GSID_21923
ghl.PD_Mitscher_leg0.242
68411-76-7
Cyclohexane, LR, >=99%
KSC176E2J
CHEMBL15980
Cyclohexane, JIS special grade
Cyclohexane, analytical standard
Cyclohexane, p.a., 99.0%
Cyclohexane, Environmental Grade
DTXSID4021923
CTK0H6224
Cyclohexane, anhydrous, 99.5%
Cyclohexane, AR, >=99.5%
KS-00000WCC
Cyclohexane, reaction product with oxygen, nonvolatile residue
BCP08072
ZINC1532203
Tox21_201087
ANW-56408
Cyclohexane GC, for residue analysis
LS-516
NSC406835
STL283116
Cyclohexane, >=99.5%, PRA grade
Cyclohexane, for HPLC, >=99.9%
AKOS000119975
Cyclohexane, HPLC grade, >=99.9%
ZINC100503963
CYCLOHEXANE, HPLC/SPECTRO GRADE
MCULE-3136361765
NSC-406835
UN 1145
Cyclohexane 2000 microg/mL in Methanol
NCGC00248918-01
NCGC00258639-01
25012-93-5
AN-22625
CAS-110-82-7
CJ-24168
Cyclohexane, puriss., >=99.5% (GC)
Cyclohexane [UN1145] [Flammable liquid]
Cyclohexane, SAJ first grade, >=99.0%
Cyclohexane, Laboratory Reagent, >=99.8%
Cyclohexane, p.a., ACS reagent, 99.0%
TR-002195
TX-017501
Cyclohexane [UN1145] [Flammable liquid]
Cyclohexane, UV HPLC spectroscopic, 99.5%
FT-0624180
5374-EP2269975A2
5374-EP2269977A2
5374-EP2269986A1
5374-EP2269989A1
5374-EP2269990A1
5374-EP2269993A1
5374-EP2269997A2
5374-EP2270001A1
5374-EP2270003A1
5374-EP2270006A1
5374-EP2270008A1
5374-EP2270010A1
5374-EP2270014A1
5374-EP2270113A1
5374-EP2270114A1
5374-EP2272516A2
5374-EP2272517A1
5374-EP2272537A2
5374-EP2272822A1
5374-EP2272825A2
5374-EP2272826A1
5374-EP2272831A1
5374-EP2272848A1
5374-EP2272935A1
5374-EP2274983A1
5374-EP2275401A1
5374-EP2275407A1
5374-EP2275410A1
5374-EP2275414A1
5374-EP2275415A2
5374-EP2275419A2
5374-EP2275469A1
5374-EP2277848A1
5374-EP2277882A1
5374-EP2277898A2
5374-EP2280000A1
5374-EP2280005A1
5374-EP2280006A1
5374-EP2280009A1
5374-EP2280011A1
5374-EP2280014A2
5374-EP2281812A1
5374-EP2281813A1
5374-EP2281815A1
5374-EP2281818A1
5374-EP2281820A2
5374-EP2281822A1
5374-EP2284148A1
5374-EP2284149A1
5374-EP2284157A1
5374-EP2284174A1
5374-EP2286915A2
5374-EP2287147A2
5374-EP2287152A2
5374-EP2287153A1
5374-EP2287154A1
5374-EP2287159A1
5374-EP2287160A1
5374-EP2287168A2
5374-EP2287940A1
5374-EP2289509A2
5374-EP2289876A1
5374-EP2289878A1
5374-EP2289879A1
5374-EP2289884A1
5374-EP2289887A2
5374-EP2289888A2
5374-EP2289891A2
5374-EP2289893A1
5374-EP2289897A1
5374-EP2289965A1
5374-EP2292592A1
5374-EP2292596A2
5374-EP2292611A1
5374-EP2292612A2
5374-EP2292617A1
5374-EP2292621A1
5374-EP2292629A1
5374-EP2292630A1
5374-EP2295408A1
5374-EP2295410A1
5374-EP2295426A1
5374-EP2295427A1
5374-EP2295430A2
5374-EP2295431A2
5374-EP2298729A1
5374-EP2298731A1
5374-EP2298735A1
5374-EP2298745A1
5374-EP2298746A1
5374-EP2298754A1
5374-EP2298761A1
5374-EP2298763A1
5374-EP2298767A1
5374-EP2298772A1
5374-EP2298828A1
5374-EP2301544A1
5374-EP2301627A1
5374-EP2301909A1
5374-EP2301918A1
5374-EP2301919A1
5374-EP2301934A1
5374-EP2301939A1
5374-EP2301983A1
5374-EP2302003A1
5374-EP2305250A1
5374-EP2305254A1
5374-EP2305625A1
5374-EP2305627A1
5374-EP2305642A2
5374-EP2305649A1
5374-EP2305650A1
5374-EP2305667A2
5374-EP2305675A1
5374-EP2305679A1
5374-EP2305682A1
5374-EP2305683A1
5374-EP2305685A1
5374-EP2305686A1
5374-EP2305688A1
5374-EP2305808A1
5374-EP2305825A1
5374-EP2308471A1
5374-EP2308510A1
5374-EP2308562A2
5374-EP2308812A2
5374-EP2308832A1
5374-EP2308838A1
5374-EP2308839A1
5374-EP2308848A1
5374-EP2308849A1
5374-EP2308850A1
5374-EP2308851A1
5374-EP2308857A1
5374-EP2308858A1
5374-EP2308861A1
5374-EP2308865A1
5374-EP2308876A1
5374-EP2308879A1
5374-EP2308926A1
5374-EP2309564A1
5374-EP2309584A1
5374-EP2311796A1
5374-EP2311797A1
5374-EP2311798A1
5374-EP2311799A1
5374-EP2311801A1
5374-EP2311802A1
5374-EP2311803A1
5374-EP2311808A1
5374-EP2311813A1
5374-EP2311816A1
5374-EP2311817A1
5374-EP2311821A1
5374-EP2311822A1
5374-EP2311824A1
5374-EP2311829A1
5374-EP2311830A1
5374-EP2311837A1
5374-EP2311839A1
5374-EP2311841A1
5374-EP2311842A2
5374-EP2311846A1
5374-EP2314295A1
5374-EP2314558A1
5374-EP2314579A1
5374-EP2314583A1
5374-EP2314585A1
5374-EP2314587A1
5374-EP2314589A1
5374-EP2316452A1
5374-EP2316824A1
5374-EP2316837A1
5374-EP2371797A1
5374-EP2371798A1
5374-EP2371800A1
5374-EP2371804A1
5374-EP2371811A2
5374-EP2371814A1
5374-EP2371831A1
5374-EP2374454A1
5374-EP2375479A1
5374-EP2376421A1
5374-EP2376422A1
5374-EP2377844A2
5374-EP2377845A1
5374-EP2377847A1
5374-EP2380568A1
5374-EP2380871A1
5374-EP2380874A2
5611-EP2270101A1
5611-EP2272822A1
5611-EP2272832A1
5611-EP2272843A1
5611-EP2275469A1
5611-EP2281817A1
5611-EP2281818A1
5611-EP2284169A1
5611-EP2287161A1
5611-EP2287162A1
5611-EP2287940A1
5611-EP2289518A1
5611-EP2292231A1
5611-EP2292589A1
5611-EP2292597A1
5611-EP2292611A1
5611-EP2295414A1
5611-EP2298747A1
5611-EP2298828A1
5611-EP2301922A1
5611-EP2305248A1
5611-EP2305641A1
5611-EP2311850A1
5611-EP2371811A2
5611-EP2372804A1
5611-EP2374783A1
5611-EP2377841A1
5611-EP2378585A1
C11249
56779-EP2272846A1
56779-EP2275408A1
56779-EP2275422A1
56779-EP2277868A1
56779-EP2277869A1
56779-EP2277870A1
56779-EP2287147A2
56779-EP2287158A1
56779-EP2292608A1
56779-EP2292616A1
56779-EP2292625A1
56779-EP2295422A2
56779-EP2295436A1
56779-EP2298076A1
56779-EP2298077A1
56779-EP2298305A1
56779-EP2298769A1
56779-EP2301353A1
56779-EP2305031A1
56779-EP2305034A1
56779-EP2305035A1
56779-EP2308866A1
56779-EP2308878A2
56779-EP2374791A1
56779-EP2377844A2
300044X
Cyclohexane, ACS spectrophotometric grade, >=99%
I14-17856
InChI=1/C6H12/c1-2-4-6-5-3-1/h1-6H
Cyclohexane, HPLC UV/IR isocratic grade, min. 99.9%
Cyclohexane, Pharmaceutical Secondary Standard; Certified Reference Material

> <TPSA>
0

> <TotalAidCount>
227

> <TotalFormalCharge>
0

> <XLogP>
3.4

> <database>
PubChem Compound

> <matchingCount>
176

> <primaryID>
8078

> <queryTranslation>
7628[CompoundID] OR 244[CompoundID] OR 25059[CompoundID] OR 7618[CompoundID] OR 7641[CompoundID] OR 5053[CompoundID] OR 637511[CompoundID] OR 7714[CompoundID] OR 7762[CompoundID] OR 25429[CompoundID]
OR 8842[CompoundID] OR 7794[CompoundID] OR 637566[CompoundID] OR 7843[CompoundID] OR 174[CompoundID] OR 7870[CompoundID] OR 86102[CompoundID] OR 7888[CompoundID] OR 7896[CompoundID] OR 1140[CompoundID
] OR 8042[CompoundID] OR 8058[CompoundID] OR 8078[CompoundID] OR 8087[CompoundID] OR 8117[CompoundID] OR 8133[CompoundID] OR 115224[CompoundID] OR 8175[CompoundID] OR 8194[CompoundID] OR 445639[Compou
ndID] OR 4944[CompoundID] OR 8294[CompoundID] OR 93541[CompoundID] OR 8360[CompoundID] OR 8363[CompoundID] OR 656612[CompoundID] OR 125098[CompoundID] OR 3352[CompoundID] OR 3303913[CompoundID] OR 648
05[CompoundID] OR 31200[CompoundID] OR 1712058[CompoundID] OR 31236[CompoundID] OR 31239[CompoundID] OR 31265[CompoundID] OR 31266[CompoundID] OR 31276[CompoundID] OR 6950273[CompoundID] OR 518659[Com
poundID] OR 14896[CompoundID] OR 14798[CompoundID] OR 14829[CompoundID] OR 14830[CompoundID] OR 8635[CompoundID] OR 23266[CompoundID] OR 4284[CompoundID] OR 8693[CompoundID] OR 22311[CompoundID] OR 87
59[CompoundID] OR 8785[CompoundID] OR 2723810[CompoundID] OR 8857[CompoundID] OR 3893[CompoundID] OR 9936739[CompoundID] OR 516892[CompoundID] OR 5430[CompoundID] OR 9017[CompoundID] OR 15433[Compound
ID] OR 107720[CompoundID] OR 9552081[CompoundID] OR 164825[CompoundID] OR 10275455[CompoundID] OR 16666[CompoundID] OR 9839306[CompoundID] OR 5282227[CompoundID] OR 23676745[CompoundID] OR 32881[Compo
undID] OR 91581[CompoundID] OR 39800[CompoundID] OR 33344[CompoundID] OR 15962220[CompoundID] OR 33528[CompoundID] OR 5365075[CompoundID] OR 62829[CompoundID] OR 162381[CompoundID] OR 517202[CompoundI
D] OR 6433353[CompoundID] OR 2730[CompoundID] OR 5372405[CompoundID] OR 36081[CompoundID] OR 3120[CompoundID] OR 3017[CompoundID] OR 2969[CompoundID] OR 18827[CompoundID] OR 19518[CompoundID] OR 19658
[CompoundID] OR 38283[CompoundID] OR 2758[CompoundID] OR 10112[CompoundID] OR 10340[CompoundID] OR 712[CompoundID] OR 5794[CompoundID] OR 3347[CompoundID] OR 104150[CompoundID] OR 2912[CompoundID] OR
2450[CompoundID] OR 40326[CompoundID] OR 40585[CompoundID] OR 517055[CompoundID] OR 10913[CompoundID] OR 108242[CompoundID] OR 62097[CompoundID] OR 41679[CompoundID] OR 54680676[CompoundID] OR 62118[C
ompoundID] OR 753[CompoundID] OR 1030[CompoundID] OR 23673837[CompoundID] OR 54678504[CompoundID] OR 11442[CompoundID] OR 11463[CompoundID] OR 22230[CompoundID] OR 440917[CompoundID] OR 6054[CompoundI
D] OR 43234[CompoundID] OR 22629[CompoundID] OR 3039[CompoundID] OR 2735067[CompoundID] OR 6144[CompoundID] OR 702[CompoundID] OR 284[CompoundID] OR 176[CompoundID] OR 91688[CompoundID] OR 22947[Compo
undID] OR 47445[CompoundID] OR 1711973[CompoundID] OR 243[CompoundID] OR 10342051[CompoundID] OR 5281875[CompoundID] OR 3776[CompoundID] OR 6224[CompoundID] OR 104926[CompoundID] OR 8755[CompoundID] O
R 338[CompoundID] OR 123622[CompoundID] OR 23954[CompoundID] OR 6334[CompoundID] OR 2537[CompoundID] OR 24261[CompoundID] OR 23665760[CompoundID] OR 83975[CompoundID] OR 784[CompoundID] OR 24437[Compo
undID] OR 5360315[CompoundID] OR 311[CompoundID] OR 6549[CompoundID] OR 107689[CompoundID] OR 17100[CompoundID] OR 24976875[CompoundID] OR 6654[CompoundID] OR 71245[CompoundID] OR 6442842[CompoundID]
OR 62334[CompoundID] OR 54698175[CompoundID] OR 6328154[CompoundID] OR 24762[CompoundID] OR 440950[CompoundID] OR 7017[CompoundID] OR 5281873[CompoundID] OR 323[CompoundID] OR 5281167[CompoundID] OR 7
175[CompoundID] OR 7292[CompoundID] OR 6335613[CompoundID] OR 7456[CompoundID] OR 7462[CompoundID]

> <resultIndex>
121

> <resultRange>
1-176

> <textQuery>
7628,244,25059,7618,7641,5053,637511,7714,7762,25429,8842,7794,637566,7843,174,7870,86102,7888,7896,1140,8042,8058,8078,8087,8117,8133,115224,8175,8194,445639,4944,8294,93541,8360,8363,656612,125098,3
352,3303913,64805,31200,1712058,31236,31239,31265,31266,31276,6950273,518659,14896,14798,14829,14830,8635,23266,4284,8693,22311,8759,8785,2723810,8857,3893,9936739,516892,5430,9017,15433,107720,955208
1,164825,10275455,16666,9839306,5282227,23676745,32881,91581,39800,33344,15962220,33528,5365075,62829,162381,517202,6433353,2730,5372405,36081,3120,3017,2969,18827,19518,19658,38283,2758,10112,10340,7
12,5794,3347,104150,2912,2450,40326,40585,517055,10913,108242,62097,41679,54680676,62118,753,1030,23673837,54678504,11442,11463,22230,440917,6054,43234,22629,3039,2735067,6144,702,284,176,91688,22947,
47445,1711973,243,10342051,5281875,3776,6224,104926,8755,338,123622,23954,6334,2537,24261,23665760,83975,784,24437,5360315,311,6549,107689,17100,24976875,6654,71245,6442842,62334,54698175,6328154,2476
2,440950,7017,5281873,323,5281167,7175,7292,6335613,7456,7462

$$$$
8,058
  SciTegic10191915303D

 20 19  0  0  0  0            999 V2000
    0.2700    0.3690    0.6110 C   0  0
   -0.2700   -0.3720   -0.6120 C   0  0
   -0.1860   -0.2560    1.9290 C   0  0
    0.1860    0.2540   -1.9310 C   0  0
    0.3540    0.4850    3.1530 C   0  0
   -0.3550   -0.4870   -3.1540 C   0  0
    0.0010    1.4250    0.5720 H   0  0
    1.3580    0.4360    0.5720 H   0  0
   -0.0010   -1.4270   -0.5730 H   0  0
   -1.3570   -0.4380   -0.5730 H   0  0
    0.0830   -1.3120    1.9680 H   0  0
   -1.2730   -0.3230    1.9680 H   0  0
   -0.0830    1.3100   -1.9690 H   0  0
    1.2740    0.3200   -1.9700 H   0  0
    0.0210    0.0280    4.0840 H   0  0
    0.0210    1.5220    3.1530 H   0  0
    1.4440    0.4850    3.1530 H   0  0
   -0.0180   -0.0090   -4.0740 H   0  0
   -0.0250   -1.5260   -3.1520 H   0  0
   -1.4450   -0.4830   -3.1560 H   0  0
  1  2  1  0
  1  3  1  0
  2  4  1  0
  3  5  1  0
  4  6  1  0
  1  7  1  0
  1  8  1  0
  2  9  1  0
  2 10  1  0
  3 11  1  0
  3 12  1  0
  4 13  1  0
  4 14  1  0
  5 15  1  0
  5 16  1  0
  5 17  1  0
  6 18  1  0
  6 19  1  0
  6 20  1  0
M  END
> <Name>
8,058

> <OBJECTID>
9223372547959226379

> <ActiveAidCount>
6

> <AtomChiralCount>
0

> <AtomChiralDefCount>
0

> <AtomChiralUndefCount>
0

> <BondChiralCount>
0

> <BondChiralDefCount>
0

> <BondChiralUndefCount>
0

> <CID>
8058

> <CanonicalSmiles>
CCCCCC

> <Complexity>
12

> <CovalentUnitCount>
1

> <CreateDate>
2004/09/16 00:00

> <HeavyAtomCount>
6

> <HydrogenBondAcceptorCount>
0

> <HydrogenBondDonorCount>
0

> <IUPACName>
hexane

> <InChI>
InChI=1S/C6H14/c1-3-5-6-4-2/h3-6H2,1-2H3

> <InChIKey>
VLKZOEOYAKHREP-UHFFFAOYSA-N

> <IsomericSmiles>
CCCCCC

> <IsotopeAtomCount>
0

> <MeSHHeading>
n-hexane

> <MeSHTerm>
n-hexane
n-hexane, 3-(13)C-labeled cpd
n-hexane, 2-(13)C-labeled cpd
n-hexane, 1-(13)C-labeled cpd

> <MolecularFormula>
C6H14

> <MolecularWeight>
86.18

> <RotatableBondCount>
3

> <Smiles>
C(CC)CCC

> <SourceCategory>
Chemical Vendors
Legacy Depositors
Research and Development
Curation Efforts
Governmental Organizations
NIH Initiatives
Subscription Services
Journal Publishers

> <Synonym>
HEXANE
n-Hexane
110-54-3
Esani
Skellysolve B
Gettysolve-B
Hexyl hydride
hexan
Dipropyl
Heksan
Hexanen
Hexanes
n-Hexan
Esani [Italian]
Heksan [Polish]
Hexanen [Dutch]
Normal hexane
NCI-C60571
1-hexane
Butane, ethyl-
Hexane, branched and linear
UNII-2DDG612ED8
NSC 68472
HSDB 91
CCRIS 6247
CHEBI:29021
EINECS 203-777-6
UN1208
92112-69-1
n-C6H14
Naphtha Solvent
AI3-24253
Naptha Solvent
2DDG612ED8
CH3-[CH2]4-CH3
VLKZOEOYAKHREP-UHFFFAOYSA-N
MFCD00009520
n-HEXANE, 95%
HEX
Hydrocarbons, C>3
n-Hexane, 95+%, extra pure
Hexane, for HPLC, >=95%
n-Hexane, 95+%, for HPLC
n-Hexane, 99+%, for analysis
normal-hexane
n-Hexane, 96+%, Extra Dry, AcroSeal(R)
n-Hexane, for analysis, contains appr. 95% n-Hexane
n-Hexane, 97%, Extra Dry over Molecular Sieve, AcroSeal(R)
n-Hexane, for pesticide residue analysis, approx. 95% n-Hexane
Hexane, HPLC Plus, for HPLC, GC, and residue analysis, >=95%
HexH
n-Hexane, 95%, for residue analysis, ECD tested halocarbons free grade
n-Hexane, 95%, for residue analysis, for trace analysis of polyaromatic hydrocarbons
EINECS 295-570-2
Hexane, for HPLC
Hexane, p.a.
n-Hexane, anhydrous
n-Hexane HPLC grade
n-Hexane, ACS grade
Hexane Fraction, purum
Hexane, technical grade
n-Hexane, HPLC Grade
Hexane (Solvent Grade)
DSSTox_CID_1917
Hexane, anhydrous, 95%
Epitope ID:116866
Exxsol Hexane (Salt/Mix)
Hexanes Reagent Grade ACS
UN 1208 (Related)
EC 203-777-6
Hexane, analytical standard
Hexane, p.a., 95%
n-HEXANE 85%
n-HEXANE 99%
DSSTox_RID_76401
DSSTox_GSID_21917
Hexane, AR, >=99%
WLN: 6H
68476-44-8
Hexane, ACS reagent, 99%
KSC174K7R
CHEMBL15939
n-Hexane, Environmental grade
Hexane, p.a., 95.0%
Ligroine, Hexane (Laboratory)
AC1L1Q63
DTXSID0021917
Hexane, for HPLC, >=99%
n-Hexane, 97+%, for HPLC
CTK0H4578
KS-00000YUK
Hexane, purification grade, 95%
N-HEXANE 95%, GC GRADE
n-Hexane, Spectrophotometric Grade
N-HEXANE 95%, ACS GRADE
n-Hexane GC, for residue analysis
Hexane, ReagentPlus(R), >=99%
NSC68472
ZINC1532209
EINECS 273-305-1
Hexane, puriss., >=95% (GC)
Tox21_200777
7548AF
ANW-42062
LMFA11000007
LS-507
NSC-68472
STL445663
Hexane, Laboratory Reagent, >=95%
Hexane, purum, >=98.0% (GC)
AKOS000269046
Hexane, UV HPLC spectroscopic, 97%
Hexane, SAJ first grade, >=95.0%
MCULE-3465692202
RP18468
RTR-002165
TRA0044590
Hexanes [UN1208] [Flammable liquid]
N-HEXANE 99%, CERTIFIED GRADE
Hexane, JIS special grade, >=96.0%
Hexanes [UN1208] [Flammable liquid]
NCGC00248828-01
NCGC00258331-01
AN-43007
CAS-110-54-3
CJ-24169
Hexane, for HPLC, >=97.0% (GC)
Hexane, spectrophotometric grade, >=95%
N-HEXANE 95%, HPLC/SPECTRO GRADE
TR-002165
927-EP1441224A2
927-EP2269610A2
927-EP2269977A2
927-EP2270000A1
927-EP2270001A1
927-EP2270005A1
927-EP2270006A1
927-EP2270011A1
927-EP2270014A1
927-EP2272509A1
927-EP2272517A1
927-EP2272813A2
927-EP2272825A2
927-EP2272839A1
927-EP2272840A1
927-EP2272847A1
927-EP2275102A1
927-EP2277848A1
927-EP2277865A1
927-EP2277867A2
927-EP2277875A2
927-EP2279741A2
927-EP2280003A2
927-EP2280008A2
927-EP2280012A2
927-EP2280014A2
927-EP2281563A1
927-EP2284149A1
927-EP2284157A1
927-EP2286811A1
927-EP2287165A2
927-EP2287166A2
927-EP2287167A1
927-EP2287168A2
927-EP2289510A1
927-EP2289876A1
927-EP2289890A1
927-EP2289892A1
927-EP2289893A1
927-EP2289894A2
927-EP2292088A1
927-EP2292576A2
927-EP2292620A2
927-EP2292621A1
927-EP2292622A1
927-EP2295401A2
927-EP2295402A2
927-EP2295407A1
927-EP2295408A1
927-EP2295409A1
927-EP2295411A1
927-EP2295412A1
927-EP2295413A1
927-EP2295415A1
927-EP2295417A1
927-EP2295426A1
927-EP2295427A1
927-EP2295432A1
927-EP2295433A2
927-EP2295435A1
927-EP2295437A1
927-EP2298734A2
927-EP2298735A1
927-EP2298736A1
927-EP2298738A1
927-EP2298743A1
927-EP2298751A2
927-EP2298758A1
927-EP2298759A1
927-EP2298770A1
927-EP2298775A1
927-EP2298776A1
927-EP2298779A1
927-EP2299785A1
927-EP2301533A1
927-EP2301536A1
927-EP2301538A1
927-EP2301923A1
927-EP2301929A1
927-EP2301930A1
927-EP2301931A1
927-EP2301933A1
927-EP2301934A1
927-EP2301935A1
927-EP2301940A1
927-EP2302382A2
927-EP2302383A2
927-EP2305250A1
927-EP2305636A1
927-EP2305640A2
927-EP2305648A1
927-EP2305660A1
927-EP2305664A1
927-EP2305668A1
927-EP2305671A1
927-EP2305674A1
927-EP2305675A1
927-EP2305677A1
927-EP2305680A2
927-EP2305682A1
927-EP2305684A1
927-EP2305695A2
927-EP2305696A2
927-EP2305697A2
927-EP2305698A2
927-EP2306788A1
927-EP2306789A1
927-EP2308812A2
927-EP2308832A1
927-EP2308833A2
927-EP2308840A1
927-EP2308841A2
927-EP2308848A1
927-EP2308849A1
927-EP2308850A1
927-EP2308851A1
927-EP2308861A1
927-EP2308872A1
927-EP2308873A1
927-EP2308875A1
927-EP2308879A1
927-EP2308882A1
927-EP2311455A1
927-EP2311796A1
927-EP2311797A1
927-EP2311798A1
927-EP2311799A1
927-EP2311807A1
927-EP2311814A1
927-EP2311815A1
927-EP2311824A1
927-EP2311827A1
927-EP2311829A1
927-EP2311830A1
927-EP2311836A1
927-EP2311837A1
927-EP2311850A1
927-EP2314295A1
927-EP2314571A2
927-EP2314582A1
927-EP2314584A1
927-EP2314590A1
927-EP2314593A1
927-EP2315502A1
927-EP2316452A1
927-EP2316458A1
927-EP2316827A1
927-EP2316828A1
927-EP2316829A1
927-EP2316831A1
927-EP2316832A1
927-EP2316833A1
927-EP2316836A1
927-EP2374454A1
927-EP2380568A1
FT-0627031
FT-0657006
Hexane, suitable for determination of dioxins
S0278
1971-EP0930075A1
1971-EP1441224A2
1971-EP2269651A2
1971-EP2269977A2
1971-EP2269978A2
1971-EP2269979A1
1971-EP2269985A2
1971-EP2269986A1
1971-EP2269988A2
1971-EP2269989A1
1971-EP2269990A1
1971-EP2269991A2
1971-EP2269992A1
1971-EP2269993A1
1971-EP2270001A1
1971-EP2270006A1
1971-EP2270008A1
1971-EP2270009A1
1971-EP2270010A1
1971-EP2270011A1
1971-EP2270014A1
1971-EP2270017A1
1971-EP2270101A1
1971-EP2270113A1
1971-EP2270114A1
1971-EP2270505A1
1971-EP2272516A2
1971-EP2272517A1
1971-EP2272537A2
1971-EP2272813A2
1971-EP2272817A1
1971-EP2272822A1
1971-EP2272825A2
1971-EP2272827A1
1971-EP2272832A1
1971-EP2272835A1
1971-EP2272837A1
1971-EP2272839A1
1971-EP2272840A1
1971-EP2272841A1
1971-EP2272843A1
1971-EP2272844A1
1971-EP2272849A1
1971-EP2272935A1
1971-EP2272972A1
1971-EP2272973A1
1971-EP2274983A1
1971-EP2275102A1
1971-EP2275105A1
1971-EP2275395A2
1971-EP2275401A1
1971-EP2275403A1
1971-EP2275404A1
1971-EP2275410A1
1971-EP2275411A2
1971-EP2275412A1
1971-EP2275413A1
1971-EP2275414A1
1971-EP2275420A1
1971-EP2275421A1
1971-EP2275469A1
1971-EP2277565A2
1971-EP2277566A2
1971-EP2277567A1
1971-EP2277568A2
1971-EP2277569A2
1971-EP2277570A2
1971-EP2277848A1
1971-EP2277858A1
1971-EP2277861A1
1971-EP2277865A1
1971-EP2277866A1
1971-EP2277867A2
1971-EP2277872A1
1971-EP2277874A1
1971-EP2277875A2
1971-EP2277878A1
1971-EP2277880A1
1971-EP2277898A2
1971-EP2279741A2
1971-EP2279750A1
1971-EP2279751A2
1971-EP2280000A1
1971-EP2280001A1
1971-EP2280003A2
1971-EP2280005A1
1971-EP2280006A1
1971-EP2280007A1
1971-EP2280008A2
1971-EP2280009A1
1971-EP2280011A1
1971-EP2280012A2
1971-EP2281563A1
1971-EP2281813A1
1971-EP2281815A1
1971-EP2281817A1
1971-EP2281818A1
1971-EP2281819A1
1971-EP2281820A2
1971-EP2281821A1
1971-EP2281823A2
1971-EP2281824A1
1971-EP2281899A2
1971-EP2284148A1
1971-EP2284149A1
1971-EP2284150A2
1971-EP2284151A2
1971-EP2284152A2
1971-EP2284153A2
1971-EP2284154A1
1971-EP2284155A2
1971-EP2284156A2
1971-EP2284157A1
1971-EP2284159A1
1971-EP2284160A1
1971-EP2284164A2
1971-EP2284165A1
1971-EP2284167A2
1971-EP2284168A2
1971-EP2284169A1
1971-EP2284171A1
1971-EP2284172A1
1971-EP2284174A1
1971-EP2284920A1
1971-EP2286811A1
1971-EP2286915A2
1971-EP2287140A2
1971-EP2287141A1
1971-EP2287147A2
1971-EP2287148A2
1971-EP2287150A2
1971-EP2287152A2
1971-EP2287153A1
1971-EP2287154A1
1971-EP2287155A1
1971-EP2287156A1
1971-EP2287157A1
1971-EP2287159A1
1971-EP2287160A1
1971-EP2287161A1
1971-EP2287162A1
1971-EP2287165A2
1971-EP2287166A2
1971-EP2287167A1
1971-EP2287940A1
1971-EP2289509A2
1971-EP2289868A1
1971-EP2289876A1
1971-EP2289877A1
1971-EP2289879A1
1971-EP2289883A1
1971-EP2289884A1
1971-EP2289887A2
1971-EP2289888A2
1971-EP2289891A2
1971-EP2289892A1
1971-EP2289893A1
1971-EP2289894A2
1971-EP2289965A1
1971-EP2292088A1
1971-EP2292227A2
1971-EP2292228A1
1971-EP2292280A1
1971-EP2292576A2
1971-EP2292590A2
1971-EP2292592A1
1971-EP2292593A2
1971-EP2292595A1
1971-EP2292596A2
1971-EP2292597A1
1971-EP2292601A1
1971-EP2292602A1
1971-EP2292603A1
1971-EP2292604A2
1971-EP2292606A1
1971-EP2292607A2
1971-EP2292609A1
1971-EP2292610A1
1971-EP2292611A1
1971-EP2292612A2
1971-EP2292615A1
1971-EP2292617A1
1971-EP2292619A1
1971-EP2292620A2
1971-EP2292621A1
1971-EP2292622A1
1971-EP2295401A2
1971-EP2295402A2
1971-EP2295406A1
1971-EP2295408A1
1971-EP2295409A1
1971-EP2295411A1
1971-EP2295412A1
1971-EP2295413A1
1971-EP2295414A1
1971-EP2295415A1
1971-EP2295418A1
1971-EP2295419A2
1971-EP2295421A1
1971-EP2295424A1
1971-EP2295425A1
1971-EP2295426A1
1971-EP2295427A1
1971-EP2295428A2
1971-EP2295429A1
1971-EP2295432A1
1971-EP2295433A2
1971-EP2295434A2
1971-EP2295437A1
1971-EP2295438A1
1971-EP2295439A1
1971-EP2295441A2
1971-EP2295503A1
1971-EP2298729A1
1971-EP2298731A1
1971-EP2298734A2
1971-EP2298735A1
1971-EP2298737A1
1971-EP2298738A1
1971-EP2298739A1
1971-EP2298741A1
1971-EP2298742A1
1971-EP2298743A1
1971-EP2298744A2
1971-EP2298747A1
1971-EP2298750A1
1971-EP2298751A2
1971-EP2298754A1
1971-EP2298755A1
1971-EP2298757A2
1971-EP2298758A1
1971-EP2298759A1
1971-EP2298763A1
1971-EP2298764A1
1971-EP2298765A1
1971-EP2298767A1
1971-EP2298768A1
1971-EP2298770A1
1971-EP2298771A2
1971-EP2298772A1
1971-EP2298774A1
1971-EP2298775A1
1971-EP2298778A1
1971-EP2298779A1
1971-EP2298783A1
1971-EP2298828A1
1971-EP2299326A1
1971-EP2299509A1
1971-EP2299785A1
1971-EP2301536A1
1971-EP2301538A1
1971-EP2301544A1
1971-EP2301627A1
1971-EP2301911A1
1971-EP2301918A1
1971-EP2301920A1
1971-EP2301921A1
1971-EP2301922A1
1971-EP2301924A1
1971-EP2301925A1
1971-EP2301926A1
1971-EP2301929A1
1971-EP2301934A1
1971-EP2301935A1
1971-EP2301936A1
1971-EP2301937A1
1971-EP2301939A1
1971-EP2301940A1
1971-EP2301983A1
1971-EP2302015A1
1971-EP2305248A1
1971-EP2305250A1
1971-EP2305254A1
1971-EP2305260A1
1971-EP2305625A1
1971-EP2305627A1
1971-EP2305629A1
1971-EP2305633A1
1971-EP2305636A1
1971-EP2305637A2
1971-EP2305640A2
1971-EP2305641A1
1971-EP2305642A2
1971-EP2305649A1
1971-EP2305651A1
1971-EP2305652A2
1971-EP2305656A1
1971-EP2305658A1
1971-EP2305659A1
1971-EP2305660A1
1971-EP2305663A1
1971-EP2305664A1
1971-EP2305667A2
1971-EP2305668A1
1971-EP2305672A1
1971-EP2305673A1
1971-EP2305674A1
1971-EP2305675A1
1971-EP2305676A1
1971-EP2305677A1
1971-EP2305682A1
1971-EP2305684A1
1971-EP2305685A1
1971-EP2305686A1
1971-EP2305687A1
1971-EP2305688A1
1971-EP2305689A1
1971-EP2305695A2
1971-EP2305696A2
1971-EP2305697A2
1971-EP2305698A2
1971-EP2305769A2
1971-EP2305808A1
1971-EP2305825A1
1971-EP2306788A1
1971-EP2306789A1
1971-EP2308471A1
1971-EP2308562A2
1971-EP2308812A2
1971-EP2308828A2
1971-EP2308833A2
1971-EP2308838A1
1971-EP2308839A1
1971-EP2308840A1
1971-EP2308841A2
1971-EP2308843A1
1971-EP2308844A2
1971-EP2308845A2
1971-EP2308846A2
1971-EP2308848A1
1971-EP2308849A1
1971-EP2308850A1
1971-EP2308851A1
1971-EP2308854A1
1971-EP2308855A1
1971-EP2308857A1
1971-EP2308858A1
1971-EP2308861A1
1971-EP2308864A1
1971-EP2308867A2
1971-EP2308869A1
1971-EP2308870A2
1971-EP2308872A1
1971-EP2308874A1
1971-EP2308875A1
1971-EP2308876A1
1971-EP2308877A1
1971-EP2308879A1
1971-EP2308880A1
1971-EP2308882A1
1971-EP2311455A1
1971-EP2311801A1
1971-EP2311802A1
1971-EP2311803A1
1971-EP2311807A1
1971-EP2311808A1
1971-EP2311810A1
1971-EP2311811A1
1971-EP2311814A1
1971-EP2311815A1
1971-EP2311816A1
1971-EP2311817A1
1971-EP2311818A1
1971-EP2311820A1
1971-EP2311821A1
1971-EP2311822A1
1971-EP2311823A1
1971-EP2311824A1
1971-EP2311825A1
1971-EP2311826A2
1971-EP2311829A1
1971-EP2311830A1
1971-EP2311831A1
1971-EP2311834A1
1971-EP2311837A1
1971-EP2311841A1
1971-EP2311842A2
1971-EP2311850A1
1971-EP2314295A1
1971-EP2314558A1
1971-EP2314571A2
1971-EP2314574A1
1971-EP2314576A1
1971-EP2314582A1
1971-EP2314583A1
1971-EP2314584A1
1971-EP2314585A1
1971-EP2314586A1
1971-EP2314587A1
1971-EP2314590A1
1971-EP2314593A1
1971-EP2315303A1
1971-EP2316452A1
1971-EP2316458A1
1971-EP2316470A2
1971-EP2316824A1
1971-EP2316825A1
1971-EP2316827A1
1971-EP2316828A1
1971-EP2316829A1
1971-EP2316832A1
1971-EP2316833A1
1971-EP2316836A1
1971-EP2316974A1
1971-EP2371795A1
1971-EP2371797A1
1971-EP2371800A1
1971-EP2371804A1
1971-EP2371810A1
1971-EP2371811A2
1971-EP2371812A1
1971-EP2371813A1
1971-EP2371814A1
1971-EP2371831A1
1971-EP2374454A1
1971-EP2374783A1
1971-EP2374788A1
1971-EP2374790A1
1971-EP2377510A1
1971-EP2377841A1
1971-EP2377847A1
1971-EP2380568A1
1971-EP2380874A2
4834-EP0930075A1
4834-EP2269610A2
4834-EP2269987A1
4834-EP2269990A1
4834-EP2272516A2
4834-EP2272817A1
4834-EP2272827A1
4834-EP2272832A1
4834-EP2272837A1
4834-EP2272841A1
4834-EP2275407A1
4834-EP2275409A1
4834-EP2275411A2
4834-EP2275413A1
4834-EP2275419A2
4834-EP2275421A1
4834-EP2275469A1
4834-EP2277858A1
4834-EP2277880A1
4834-EP2280000A1
4834-EP2280001A1
4834-EP2280007A1
4834-EP2280008A2
4834-EP2280009A1
4834-EP2281563A1
4834-EP2281817A1
4834-EP2281820A2
4834-EP2281823A2
4834-EP2284148A1
4834-EP2284169A1
4834-EP2284174A1
4834-EP2287152A2
4834-EP2287154A1
4834-EP2287155A1
4834-EP2287156A1
4834-EP2287161A1
4834-EP2287162A1
4834-EP2287940A1
4834-EP2289897A1
4834-EP2289965A1
4834-EP2292088A1
4834-EP2292610A1
4834-EP2295430A2
4834-EP2295431A2
4834-EP2298729A1
4834-EP2298741A1
4834-EP2298745A1
4834-EP2298746A1
4834-EP2298747A1
4834-EP2298754A1
4834-EP2298755A1
4834-EP2298757A2
4834-EP2298772A1
4834-EP2298774A1
4834-EP2298778A1
4834-EP2298828A1
4834-EP2299510A1
4834-EP2301909A1
4834-EP2301911A1
4834-EP2301921A1
4834-EP2301922A1
4834-EP2301926A1
4834-EP2301983A1
4834-EP2305260A1
4834-EP2305627A1
4834-EP2305644A1
4834-EP2305649A1
4834-EP2305652A2
4834-EP2305655A2
4834-EP2305657A2
4834-EP2305660A1
4834-EP2305669A1
4834-EP2305672A1
4834-EP2305683A1
4834-EP2305808A1
4834-EP2305825A1
4834-EP2308510A1
4834-EP2308828A2
4834-EP2308838A1
4834-EP2308839A1
4834-EP2308857A1
4834-EP2308861A1
4834-EP2308866A1
4834-EP2308877A1
4834-EP2308926A1
4834-EP2309564A1
4834-EP2309584A1
4834-EP2311801A1
4834-EP2311802A1
4834-EP2311803A1
4834-EP2311806A2
4834-EP2311820A1
4834-EP2311821A1
4834-EP2311832A1
4834-EP2311833A1
4834-EP2311839A1
4834-EP2314577A1
4834-EP2314583A1
4834-EP2314585A1
4834-EP2314589A1
4834-EP2316837A1
4834-EP2371831A1
4834-EP2374788A1
4834-EP2375479A1
4834-EP2380871A1
C11271
14902-EP2272846A1
14902-EP2277868A1
14902-EP2277869A1
14902-EP2277870A1
14902-EP2281817A1
14902-EP2292608A1
14902-EP2292625A1
14902-EP2295422A2
14902-EP2295436A1
14902-EP2298769A1
14902-EP2308866A1
14902-EP2316830A2
14902-EP2374791A1
25662-EP2275408A1
25662-EP2281817A1
25662-EP2287158A1
25662-EP2289483A1
25662-EP2292616A1
25662-EP2295423A1
25662-EP2308852A1
25662-EP2308866A1
25662-EP2314580A1
105320-EP2298779A1
A802211
I14-7327
J-002443
Hexane, Vetec(TM) reagent grade, anhydrous, >=95%
Hexane, puriss. p.a., ACS reagent, >=99.0% (GC)
I14-112531
n-Hexane, 97%, for electronic use (MOS), residue free
680AF2EE-A7B6-479B-BFB3-0F5354069F72
Hexane, >=96.0%, suitable for residual phthalate analysis
Hexane, for residue analysis, suitable for 5000 per JIS
InChI=1/C6H14/c1-3-5-6-4-2/h3-6H2,1-2H
n-Hexane, 95% min. glass distilled HRGC/HPLC trace grade
UNII-1S70G88A39 component VLKZOEOYAKHREP-UHFFFAOYSA-N
HEXANES, MIXTURE OF ISOMERS, FOR SPECTROSCOPY, 95+%
Hexane, puriss. p.a., ACS reagent, reag. Ph. Eur., >=99% (GC)
Hexane, suitable for 1000 per JIS, >=96.0%, for residue analysis
Hexane, suitable for 300 per JIS, >=96.0%, for residue analysis
Hexane, Pharmaceutical Secondary Standard; Certified Reference Material
Hexane, commercial grade (52% n-hexane, 16% 3-methylpentane, 16% methylcyclopentane)
Hexane, puriss., absolute, over molecular sieve (H2O <=0.01%), >=99.0% (GC)

> <TPSA>
0

> <TotalAidCount>
234

> <TotalFormalCharge>
0

> <XLogP>
3.9

> <database>
PubChem Compound

> <matchingCount>
176

> <primaryID>
8058

> <queryTranslation>
7628[CompoundID] OR 244[CompoundID] OR 25059[CompoundID] OR 7618[CompoundID] OR 7641[CompoundID] OR 5053[CompoundID] OR 637511[CompoundID] OR 7714[CompoundID] OR 7762[CompoundID] OR 25429[CompoundID]
OR 8842[CompoundID] OR 7794[CompoundID] OR 637566[CompoundID] OR 7843[CompoundID] OR 174[CompoundID] OR 7870[CompoundID] OR 86102[CompoundID] OR 7888[CompoundID] OR 7896[CompoundID] OR 1140[CompoundID
] OR 8042[CompoundID] OR 8058[CompoundID] OR 8078[CompoundID] OR 8087[CompoundID] OR 8117[CompoundID] OR 8133[CompoundID] OR 115224[CompoundID] OR 8175[CompoundID] OR 8194[CompoundID] OR 445639[Compou
ndID] OR 4944[CompoundID] OR 8294[CompoundID] OR 93541[CompoundID] OR 8360[CompoundID] OR 8363[CompoundID] OR 656612[CompoundID] OR 125098[CompoundID] OR 3352[CompoundID] OR 3303913[CompoundID] OR 648
05[CompoundID] OR 31200[CompoundID] OR 1712058[CompoundID] OR 31236[CompoundID] OR 31239[CompoundID] OR 31265[CompoundID] OR 31266[CompoundID] OR 31276[CompoundID] OR 6950273[CompoundID] OR 518659[Com
poundID] OR 14896[CompoundID] OR 14798[CompoundID] OR 14829[CompoundID] OR 14830[CompoundID] OR 8635[CompoundID] OR 23266[CompoundID] OR 4284[CompoundID] OR 8693[CompoundID] OR 22311[CompoundID] OR 87
59[CompoundID] OR 8785[CompoundID] OR 2723810[CompoundID] OR 8857[CompoundID] OR 3893[CompoundID] OR 9936739[CompoundID] OR 516892[CompoundID] OR 5430[CompoundID] OR 9017[CompoundID] OR 15433[Compound
ID] OR 107720[CompoundID] OR 9552081[CompoundID] OR 164825[CompoundID] OR 10275455[CompoundID] OR 16666[CompoundID] OR 9839306[CompoundID] OR 5282227[CompoundID] OR 23676745[CompoundID] OR 32881[Compo
undID] OR 91581[CompoundID] OR 39800[CompoundID] OR 33344[CompoundID] OR 15962220[CompoundID] OR 33528[CompoundID] OR 5365075[CompoundID] OR 62829[CompoundID] OR 162381[CompoundID] OR 517202[CompoundI
D] OR 6433353[CompoundID] OR 2730[CompoundID] OR 5372405[CompoundID] OR 36081[CompoundID] OR 3120[CompoundID] OR 3017[CompoundID] OR 2969[CompoundID] OR 18827[CompoundID] OR 19518[CompoundID] OR 19658
[CompoundID] OR 38283[CompoundID] OR 2758[CompoundID] OR 10112[CompoundID] OR 10340[CompoundID] OR 712[CompoundID] OR 5794[CompoundID] OR 3347[CompoundID] OR 104150[CompoundID] OR 2912[CompoundID] OR
2450[CompoundID] OR 40326[CompoundID] OR 40585[CompoundID] OR 517055[CompoundID] OR 10913[CompoundID] OR 108242[CompoundID] OR 62097[CompoundID] OR 41679[CompoundID] OR 54680676[CompoundID] OR 62118[C
ompoundID] OR 753[CompoundID] OR 1030[CompoundID] OR 23673837[CompoundID] OR 54678504[CompoundID] OR 11442[CompoundID] OR 11463[CompoundID] OR 22230[CompoundID] OR 440917[CompoundID] OR 6054[CompoundI
D] OR 43234[CompoundID] OR 22629[CompoundID] OR 3039[CompoundID] OR 2735067[CompoundID] OR 6144[CompoundID] OR 702[CompoundID] OR 284[CompoundID] OR 176[CompoundID] OR 91688[CompoundID] OR 22947[Compo
undID] OR 47445[CompoundID] OR 1711973[CompoundID] OR 243[CompoundID] OR 10342051[CompoundID] OR 5281875[CompoundID] OR 3776[CompoundID] OR 6224[CompoundID] OR 104926[CompoundID] OR 8755[CompoundID] O
R 338[CompoundID] OR 123622[CompoundID] OR 23954[CompoundID] OR 6334[CompoundID] OR 2537[CompoundID] OR 24261[CompoundID] OR 23665760[CompoundID] OR 83975[CompoundID] OR 784[CompoundID] OR 24437[Compo
undID] OR 5360315[CompoundID] OR 311[CompoundID] OR 6549[CompoundID] OR 107689[CompoundID] OR 17100[CompoundID] OR 24976875[CompoundID] OR 6654[CompoundID] OR 71245[CompoundID] OR 6442842[CompoundID]
OR 62334[CompoundID] OR 54698175[CompoundID] OR 6328154[CompoundID] OR 24762[CompoundID] OR 440950[CompoundID] OR 7017[CompoundID] OR 5281873[CompoundID] OR 323[CompoundID] OR 5281167[CompoundID] OR 7
175[CompoundID] OR 7292[CompoundID] OR 6335613[CompoundID] OR 7456[CompoundID] OR 7462[CompoundID]

> <resultIndex>
122

> <resultRange>
1-176

> <textQuery>
7628,244,25059,7618,7641,5053,637511,7714,7762,25429,8842,7794,637566,7843,174,7870,86102,7888,7896,1140,8042,8058,8078,8087,8117,8133,115224,8175,8194,445639,4944,8294,93541,8360,8363,656612,125098,3
352,3303913,64805,31200,1712058,31236,31239,31265,31266,31276,6950273,518659,14896,14798,14829,14830,8635,23266,4284,8693,22311,8759,8785,2723810,8857,3893,9936739,516892,5430,9017,15433,107720,955208
1,164825,10275455,16666,9839306,5282227,23676745,32881,91581,39800,33344,15962220,33528,5365075,62829,162381,517202,6433353,2730,5372405,36081,3120,3017,2969,18827,19518,19658,38283,2758,10112,10340,7
12,5794,3347,104150,2912,2450,40326,40585,517055,10913,108242,62097,41679,54680676,62118,753,1030,23673837,54678504,11442,11463,22230,440917,6054,43234,22629,3039,2735067,6144,702,284,176,91688,22947,
47445,1711973,243,10342051,5281875,3776,6224,104926,8755,338,123622,23954,6334,2537,24261,23665760,83975,784,24437,5360315,311,6549,107689,17100,24976875,6654,71245,6442842,62334,54698175,6328154,2476
2,440950,7017,5281873,323,5281167,7175,7292,6335613,7456,7462

$$$$
8,042
  SciTegic10191915303D

 53 52  0  0  0  0            999 V2000
    0.8420    6.3220    3.8710 O   0  0
   -0.7730    5.9410    2.3660 O   0  0
    0.1760    5.5590    3.0100 C   0  0
    0.6850    4.1490    2.8770 C   0  0
    0.4270    7.6790    3.8240 C   0  0
   -0.0410    3.3670    1.7820 C   0  0
    0.4840    1.9390    1.6300 C   0  0
   -0.2410    1.1570    0.5340 C   0  0
    0.2830   -0.2710    0.3820 C   0  0
   -0.4420   -1.0530   -0.7140 C   0  0
    0.0830   -2.4810   -0.8660 C   0  0
    0.9680    8.4210    5.0470 C   0  0
    0.8830    8.3060    2.5060 C   0  0
   -0.6430   -3.2620   -1.9620 C   0  0
   -0.1180   -4.6900   -2.1140 C   0  0
   -0.8430   -5.4720   -3.2090 C   0  0
   -0.3180   -6.9000   -3.3620 C   0  0
   -1.0440   -7.6820   -4.4570 C   0  0
   -0.5190   -9.1100   -4.6090 C   0  0
    1.7370    4.1600    2.5910 H   0  0
    0.6060    3.6340    3.8350 H   0  0
   -0.6600    7.6120    3.8630 H   0  0
   -1.1160    3.3650    1.9580 H   0  0
    0.0080    3.8980    0.8320 H   0  0
    1.5600    1.9400    1.4540 H   0  0
    0.4340    1.4070    2.5800 H   0  0
   -1.3170    1.1560    0.7100 H   0  0
   -0.1910    1.6890   -0.4160 H   0  0
    1.3590   -0.2700    0.2070 H   0  0
    0.2340   -0.8030    1.3320 H   0  0
   -1.5180   -1.0540   -0.5380 H   0  0
   -0.3920   -0.5210   -1.6640 H   0  0
    1.1590   -2.4790   -1.0410 H   0  0
    0.0330   -3.0130    0.0840 H   0  0
    0.6350    7.9640    5.9790 H   0  0
    0.6350    9.4580    5.0470 H   0  0
    2.0580    8.4210    5.0470 H   0  0
    0.4450    7.8020    1.6440 H   0  0
    1.9670    8.2520    2.4080 H   0  0
    0.5960    9.3560    2.4590 H   0  0
   -1.7180   -3.2640   -1.7860 H   0  0
   -0.5930   -2.7300   -2.9120 H   0  0
    0.9580   -4.6890   -2.2890 H   0  0
   -0.1680   -5.2220   -1.1640 H   0  0
   -1.9190   -5.4730   -3.0340 H   0  0
   -0.7930   -4.9400   -4.1600 H   0  0
    0.7570   -6.8990   -3.5370 H   0  0
   -0.3680   -7.4320   -2.4110 H   0  0
   -2.1200   -7.6830   -4.2820 H   0  0
   -0.9940   -7.1500   -5.4070 H   0  0
   -1.0570   -9.6360   -5.3980 H   0  0
    0.5450   -9.1060   -4.8450 H   0  0
   -0.6540   -9.6700   -3.6840 H   0  0
  1  3  1  0
  1  5  1  0
  2  3  2  0
  3  4  1  0
  4  6  1  0
  5 12  1  0
  5 13  1  0
  6  7  1  0
  7  8  1  0
  8  9  1  0
  9 10  1  0
 10 11  1  0
 11 14  1  0
 14 15  1  0
 15 16  1  0
 16 17  1  0
 17 18  1  0
 18 19  1  0
  4 20  1  0
  4 21  1  0
  5 22  1  0
  6 23  1  0
  6 24  1  0
  7 25  1  0
  7 26  1  0
  8 27  1  0
  8 28  1  0
  9 29  1  0
  9 30  1  0
 10 31  1  0
 10 32  1  0
 11 33  1  0
 11 34  1  0
 12 35  1  0
 12 36  1  0
 12 37  1  0
 13 38  1  0
 13 39  1  0
 13 40  1  0
 14 41  1  0
 14 42  1  0
 15 43  1  0
 15 44  1  0
 16 45  1  0
 16 46  1  0
 17 47  1  0
 17 48  1  0
 18 49  1  0
 18 50  1  0
 19 51  1  0
 19 52  1  0
 19 53  1  0
M  END
> <Name>
8,042

> <OBJECTID>
9223372552254193675

> <ActiveAidCount>
6

> <AtomChiralCount>
0

> <AtomChiralDefCount>
0

> <AtomChiralUndefCount>
0

> <BondChiralCount>
0

> <BondChiralDefCount>
0

> <BondChiralUndefCount>
0

> <CID>
8042

> <CanonicalSmiles>
CCCCCCCCCCCCCC(=O)OC(C)C

> <Complexity>
199

> <CovalentUnitCount>
1

> <CreateDate>
2005/03/26 00:00

> <HeavyAtomCount>
19

> <HydrogenBondAcceptorCount>
2

> <HydrogenBondDonorCount>
0

> <IUPACName>
propan-2-yl tetradecanoate

> <InChI>
InChI=1S/C17H34O2/c1-4-5-6-7-8-9-10-11-12-13-14-15-17(18)19-16(2)3/h16H,4-15H2,1-3H3

> <InChIKey>
AXISYYRBXTVTFY-UHFFFAOYSA-N

> <IsomericSmiles>
CCCCCCCCCCCCCC(=O)OC(C)C

> <IsotopeAtomCount>
0

> <MeSHHeading>
isopropyl myristate

> <MeSHTerm>
isopropyl myristate
isopropylmyristate

> <MolecularFormula>
C17H34O2

> <MolecularWeight>
270.5

> <RotatableBondCount>
14

> <Smiles>
O(C(C)C)C(CCCCCCCCCCCCC)=O

> <SourceCategory>
Chemical Vendors
Legacy Depositors
Research and Development
Curation Efforts
Governmental Organizations
NIH Initiatives
Subscription Services
Journal Publishers

> <Synonym>
ISOPROPYL MYRISTATE
Isopropyl tetradecanoate
110-27-0
Tetradecanoic acid, 1-methylethyl ester
Estergel
Bisomel
Isomyst
Promyr
Deltyl Extra
Kesscomir
Tegester
Sinnoester MIP
Crodamol IPM
Plymoutm IPM
Starfol IPM
Unimate IPM
Kessco IPM
Emcol-IM
Wickenol 101
isopropylmyristate
Stepan D-50
Emerest 2314
Myristic acid isopropyl ester
JA-FA IPM
Kessco isopropyl myristate
Crodamol I.P.M.
Deltylextra
1-Methylethyl tetradecanoate
Tetradecanoic acid, isopropyl
Tetradecanoic acid, isopropyl ester
Myristic acid, isopropyl ester
Caswell No. 511E
UNII-0RE8K4LNJS
1-Tridecanecarboxylic acid, isopropyl ester
Isopropyl myristate [USAN]
MFCD00008982
Estergel (TN)
NSC 406280
FEMA No. 3556
HSDB 626
IPM-EX
IPM-R
methylethyl tetradecanoate
EINECS 203-751-4
0RE8K4LNJS
propan-2-yl tetradecanoate
EPA Pesticide Chemical Code 000207
iso-Propyl N-tetradecanoate
BRN 1781127
CHEBI:90027
IPM 100
AXISYYRBXTVTFY-UHFFFAOYSA-N
Tetradecanoic acid methyethyl ester
NCGC00164071-01
DSSTox_CID_6838
Isopropyl myristate, 96%
Isopropyl myristate, 98%
Isopropyl tetradecanoic acid
DSSTox_RID_78224
DSSTox_GSID_26838
Q-201418
CAS-110-27-0
Tegosoft M
Isopropyl myristate [USAN:NF]
Liponate IPM
Crodamol 1PM
Lexol IPM
Crodamol I.P.M
myristic acid isopropyl
PubChem19813
ACMC-1BVUK
Radia 7190
E(R)EAEaOi+/-uo yen
Isopropyl myristate (NF)
EC 203-751-4
AC1L1Q4R
SCHEMBL2442
component of Sardo Bath Oil
Myristic acid-isopropyl ester
KSC174S6R
Isopropyl myristate, >=98%
CHEMBL207602
IPM 90
Jsp000796
DTXSID0026838
WLN: 13VOY1&1
CTK0H4968
FEMA 3556
KS-00000WXI
E(R)EAI(1/4)EaOi+/-uo yen
ZINC8214588
Isopropyl myristate, >=90% (GC)
Tox21_112080
Tox21_202065
Tox21_303171
ANW-16142
LMFA07010677
NSC406280
AKOS015902296
Myristic acid, isopropyl ester (8CI)
Tox21_112080_1
LS-2869
NSC-406280
RL00430
RTR-002139
component of Sardo Bath Oil (Salt/Mix)
NCGC00164071-02
NCGC00164071-03
NCGC00256937-01
NCGC00259614-01
AN-22595
CC-29682
R524
SC-19093
WE(2:0(1Me)/14:0)
DB-040910
TR-002139
FT-0629053
M0481
D02296
C-28193
SR-01000944751
Isopropyl myristate, Vetec(TM) reagent grade, 98%
SR-01000944751-1
I14-13725
UNII-137MVX8C09 component AXISYYRBXTVTFY-UHFFFAOYSA-N
Isopropyl myristate, United States Pharmacopeia (USP) Reference Standard
TETRADECANOIC ACID,ISOPROPYL ESTER (MYRISTATE,ISOPROPYL ESTER)
Isopropyl myristate, Pharmaceutical Secondary Standard; Certified Reference Material
InChI=1/C17H34O2/c1-4-5-6-7-8-9-10-11-12-13-14-15-17(18)19-16(2)3/h16H,4-15H2,1-3H

> <TPSA>
26.3

> <TotalAidCount>
339

> <TotalFormalCharge>
0

> <XLogP>
7.2

> <database>
PubChem Compound

> <matchingCount>
176

> <primaryID>
8042

> <queryTranslation>
7628[CompoundID] OR 244[CompoundID] OR 25059[CompoundID] OR 7618[CompoundID] OR 7641[CompoundID] OR 5053[CompoundID] OR 637511[CompoundID] OR 7714[CompoundID] OR 7762[CompoundID] OR 25429[CompoundID]
OR 8842[CompoundID] OR 7794[CompoundID] OR 637566[CompoundID] OR 7843[CompoundID] OR 174[CompoundID] OR 7870[CompoundID] OR 86102[CompoundID] OR 7888[CompoundID] OR 7896[CompoundID] OR 1140[CompoundID
] OR 8042[CompoundID] OR 8058[CompoundID] OR 8078[CompoundID] OR 8087[CompoundID] OR 8117[CompoundID] OR 8133[CompoundID] OR 115224[CompoundID] OR 8175[CompoundID] OR 8194[CompoundID] OR 445639[Compou
ndID] OR 4944[CompoundID] OR 8294[CompoundID] OR 93541[CompoundID] OR 8360[CompoundID] OR 8363[CompoundID] OR 656612[CompoundID] OR 125098[CompoundID] OR 3352[CompoundID] OR 3303913[CompoundID] OR 648
05[CompoundID] OR 31200[CompoundID] OR 1712058[CompoundID] OR 31236[CompoundID] OR 31239[CompoundID] OR 31265[CompoundID] OR 31266[CompoundID] OR 31276[CompoundID] OR 6950273[CompoundID] OR 518659[Com
poundID] OR 14896[CompoundID] OR 14798[CompoundID] OR 14829[CompoundID] OR 14830[CompoundID] OR 8635[CompoundID] OR 23266[CompoundID] OR 4284[CompoundID] OR 8693[CompoundID] OR 22311[CompoundID] OR 87
59[CompoundID] OR 8785[CompoundID] OR 2723810[CompoundID] OR 8857[CompoundID] OR 3893[CompoundID] OR 9936739[CompoundID] OR 516892[CompoundID] OR 5430[CompoundID] OR 9017[CompoundID] OR 15433[Compound
ID] OR 107720[CompoundID] OR 9552081[CompoundID] OR 164825[CompoundID] OR 10275455[CompoundID] OR 16666[CompoundID] OR 9839306[CompoundID] OR 5282227[CompoundID] OR 23676745[CompoundID] OR 32881[Compo
undID] OR 91581[CompoundID] OR 39800[CompoundID] OR 33344[CompoundID] OR 15962220[CompoundID] OR 33528[CompoundID] OR 5365075[CompoundID] OR 62829[CompoundID] OR 162381[CompoundID] OR 517202[CompoundI
D] OR 6433353[CompoundID] OR 2730[CompoundID] OR 5372405[CompoundID] OR 36081[CompoundID] OR 3120[CompoundID] OR 3017[CompoundID] OR 2969[CompoundID] OR 18827[CompoundID] OR 19518[CompoundID] OR 19658
[CompoundID] OR 38283[CompoundID] OR 2758[CompoundID] OR 10112[CompoundID] OR 10340[CompoundID] OR 712[CompoundID] OR 5794[CompoundID] OR 3347[CompoundID] OR 104150[CompoundID] OR 2912[CompoundID] OR
2450[CompoundID] OR 40326[CompoundID] OR 40585[CompoundID] OR 517055[CompoundID] OR 10913[CompoundID] OR 108242[CompoundID] OR 62097[CompoundID] OR 41679[CompoundID] OR 54680676[CompoundID] OR 62118[C
ompoundID] OR 753[CompoundID] OR 1030[CompoundID] OR 23673837[CompoundID] OR 54678504[CompoundID] OR 11442[CompoundID] OR 11463[CompoundID] OR 22230[CompoundID] OR 440917[CompoundID] OR 6054[CompoundI
D] OR 43234[CompoundID] OR 22629[CompoundID] OR 3039[CompoundID] OR 2735067[CompoundID] OR 6144[CompoundID] OR 702[CompoundID] OR 284[CompoundID] OR 176[CompoundID] OR 91688[CompoundID] OR 22947[Compo
undID] OR 47445[CompoundID] OR 1711973[CompoundID] OR 243[CompoundID] OR 10342051[CompoundID] OR 5281875[CompoundID] OR 3776[CompoundID] OR 6224[CompoundID] OR 104926[CompoundID] OR 8755[CompoundID] O
R 338[CompoundID] OR 123622[CompoundID] OR 23954[CompoundID] OR 6334[CompoundID] OR 2537[CompoundID] OR 24261[CompoundID] OR 23665760[CompoundID] OR 83975[CompoundID] OR 784[CompoundID] OR 24437[Compo
undID] OR 5360315[CompoundID] OR 311[CompoundID] OR 6549[CompoundID] OR 107689[CompoundID] OR 17100[CompoundID] OR 24976875[CompoundID] OR 6654[CompoundID] OR 71245[CompoundID] OR 6442842[CompoundID]
OR 62334[CompoundID] OR 54698175[CompoundID] OR 6328154[CompoundID] OR 24762[CompoundID] OR 440950[CompoundID] OR 7017[CompoundID] OR 5281873[CompoundID] OR 323[CompoundID] OR 5281167[CompoundID] OR 7
175[CompoundID] OR 7292[CompoundID] OR 6335613[CompoundID] OR 7456[CompoundID] OR 7462[CompoundID]

> <resultIndex>
123

> <resultRange>
1-176

> <textQuery>
7628,244,25059,7618,7641,5053,637511,7714,7762,25429,8842,7794,637566,7843,174,7870,86102,7888,7896,1140,8042,8058,8078,8087,8117,8133,115224,8175,8194,445639,4944,8294,93541,8360,8363,656612,125098,3
352,3303913,64805,31200,1712058,31236,31239,31265,31266,31276,6950273,518659,14896,14798,14829,14830,8635,23266,4284,8693,22311,8759,8785,2723810,8857,3893,9936739,516892,5430,9017,15433,107720,955208
1,164825,10275455,16666,9839306,5282227,23676745,32881,91581,39800,33344,15962220,33528,5365075,62829,162381,517202,6433353,2730,5372405,36081,3120,3017,2969,18827,19518,19658,38283,2758,10112,10340,7
12,5794,3347,104150,2912,2450,40326,40585,517055,10913,108242,62097,41679,54680676,62118,753,1030,23673837,54678504,11442,11463,22230,440917,6054,43234,22629,3039,2735067,6144,702,284,176,91688,22947,
47445,1711973,243,10342051,5281875,3776,6224,104926,8755,338,123622,23954,6334,2537,24261,23665760,83975,784,24437,5360315,311,6549,107689,17100,24976875,6654,71245,6442842,62334,54698175,6328154,2476
2,440950,7017,5281873,323,5281167,7175,7292,6335613,7456,7462

$$$$
7,896
  SciTegic10191915303D

 16 15  0  0  1  0            999 V2000
    2.0530    1.1960    1.6760 O   0  0
    1.6150    0.5220    0.5170 C   0  0
    0.0980    0.3600    0.6030 C   0  0
   -0.4920   -0.3300   -0.6270 C   0  0  3  0  0  0
   -0.0530   -1.6680   -0.6390 O   0  0
   -2.0220   -0.3300   -0.6270 C   0  0
    3.0160    1.2890    1.6050 H   0  0
    1.8890    1.1230   -0.3480 H   0  0
    2.1050   -0.4510    0.4840 H   0  0
   -0.1820   -0.1740    1.5130 H   0  0
   -0.3850    1.3210    0.7750 H   0  0
   -0.1430    0.1510   -1.5410 H   0  0
   -0.2740   -2.0350   -1.5080 H   0  0
   -2.4080   -0.8320   -1.5160 H   0  0
   -2.4080   -0.8320    0.2600 H   0  0
   -2.4080    0.6900   -0.6270 H   0  0
  1  2  1  0
  2  3  1  0
  3  4  1  0
  4  5  1  0
  4  6  1  0
  1  7  1  0
  2  8  1  0
  2  9  1  0
  3 10  1  0
  3 11  1  0
  4 12  1  0
  5 13  1  0
  6 14  1  0
  6 15  1  0
  6 16  1  0
M  END
> <Name>
7,896

> <OBJECTID>
9223372556549160971

> <ActiveAidCount>
3

> <AtomChiralCount>
1

> <AtomChiralDefCount>
0

> <AtomChiralUndefCount>
1

> <BondChiralCount>
0

> <BondChiralDefCount>
0

> <BondChiralUndefCount>
0

> <CID>
7896

> <CanonicalSmiles>
CC(CCO)O

> <Complexity>
28.7

> <CovalentUnitCount>
1

> <CreateDate>
2005/03/26 00:00

> <HeavyAtomCount>
6

> <HydrogenBondAcceptorCount>
2

> <HydrogenBondDonorCount>
2

> <IUPACName>
butane-1,3-diol

> <InChI>
InChI=1S/C4H10O2/c1-4(6)2-3-5/h4-6H,2-3H2,1H3

> <InChIKey>
PUPZLCDOIYMWBV-UHFFFAOYSA-N

> <IsomericSmiles>
CC(CCO)O

> <IsotopeAtomCount>
0

> <MeSHHeading>
1,3-butylene glycol

> <MeSHTerm>
1,3-butylene glycol
1,3-butylene glycol, (14)C-labeled
1,3-butylene glycol, (DL)-isomer
1,3-butylene glycol, (R)-isomer
1,3-butylene glycol, (S)-isomer
butylene glycol
1,3-butanediol

> <MolecularFormula>
C4H10O2

> <MolecularWeight>
90.12

> <RotatableBondCount>
2

> <Smiles>
OCCC(C)O

> <SourceCategory>
Chemical Vendors
Legacy Depositors
Research and Development
Curation Efforts
Governmental Organizations
NIH Initiatives
Subscription Services
Journal Publishers

> <Synonym>
1,3-BUTANEDIOL
Butane-1,3-diol
1,3-Butylene glycol
107-88-0
1,3-Dihydroxybutane
Methyltrimethylene glycol
1,3-Butandiol
1-Methyl-1,3-propanediol
beta-Butylene glycol
1,3 Butylene glycol
1,3-Butylenglykol
(RS)-1,3-Butandiol
(+/-)-1,3-Butanediol
1,3-Butanodiol
.beta.-Butylene glycol
Caswell No. 128GG
1,3-Butandiol [German]
1,3-butane diol
1,3-Butylenglykol [German]
NSC 402145
HSDB 153
BD
EINECS 203-529-7
MFCD00004554
BUTANEDIOL,1,3-
NSC-402145
BRN 1731276
AI3-11077
CHEBI:52683
NSC6966
PUPZLCDOIYMWBV-UHFFFAOYSA-N
1,3-butyleneglycol
(R)-(-)-Butane-1,3-diol
DSSTox_CID_6773
( inverted exclamation markA)-1,3-Butanediol
DSSTox_RID_78210
DSSTox_GSID_26773
Butane-1,3-diol (Butylene Glycol)
CAS-107-88-0
(+/-)-1,3-Butanediol, 99%, extra pure
r-(-)-1,3-butanediol
1,3-Butanediol, (R)-
1,3-Butanediol, (S)-
S-(+)-1,3-Butanediol
(R)-(-)-1,3-Butylene Glycol
Aliphatic diol
b-Butylene glycol
1.3-butanediol
1,3 -butanediol
AK-86774
AK-98171
DL-1,3-butanediol
Butylene glycol (NF)
ACMC-209gdj
racemic 1,3-butanediol
BUTANEDIOL,3-
1,3-butanediol, DL-
AC1L1PSU
AC1Q2BVI
(RS)-1,3-Butanediol
ACMC-1B2TP
EC 203-529-7
(+/-) 1,3 butandiol
(+/-)-1,3-butandiol
0-01-00-00477 (Beilstein Handbook Reference)
KSC162Q8F
ACMC-2097j5
(+/-)-1,3-Butylene glycol
(.+/-.)-1,3-Butanediol
CHEMBL3186475
DTXSID8026773
WLN: QY1 & 2Q
CTK0G2882
1,3-Butanediol, (.+/-.)-
KS-00000W9U
NSC-6966
EINECS 228-532-0
Tox21_202408
Tox21_300085
ANW-15862
BBL037424
Butylene Glycol (Butane-1,3-diol)
NSC402145
STL483070
AKOS000119043
LS-2597
MCULE-1694239851
RTR-032025
TRA0017009
VC30041
NCGC00247900-01
NCGC00247900-02
NCGC00253944-01
NCGC00259957-01
AN-10770
AN-22490
SC-79119
DB-000434
TR-032025
(+/-)-1,3-Butanediol, analytical standard
4CH-011487
4CH-023583
B0679
B3770
FT-0606593
(+/-)-1,3-Butanediol, anhydrous, >=99%
3984-EP2277565A2
3984-EP2277566A2
3984-EP2277567A1
3984-EP2277568A2
3984-EP2277569A2
3984-EP2277570A2
3984-EP2280010A2
3984-EP2284160A1
3984-EP2292227A2
3984-EP2292280A1
3984-EP2295402A2
3984-EP2295437A1
3984-EP2298734A2
3984-EP2298775A1
3984-EP2305243A1
3984-EP2308510A1
3984-EP2308562A2
3984-EP2308812A2
3984-EP2308861A1
3984-EP2308872A1
3984-EP2308873A1
3984-EP2308875A1
3984-EP2311831A1
3984-EP2311837A1
3984-EP2316470A2
3984-EP2316829A1
3984-EP2316831A1
3984-EP2316834A1
3984-EP2316835A1
3984-EP2316836A1
3984-EP2371811A2
3984-EP2374454A1
3984-EP2374787A1
9213-EP2269994A1
9213-EP2270004A1
9213-EP2270005A1
9213-EP2270006A1
9213-EP2270101A1
9213-EP2272813A2
9213-EP2272834A1
9213-EP2277876A1
9213-EP2280010A2
9213-EP2284165A1
9213-EP2287165A2
9213-EP2287166A2
9213-EP2289890A1
9213-EP2289894A2
9213-EP2292227A2
9213-EP2292228A1
9213-EP2292614A1
9213-EP2292620A2
9213-EP2295399A2
9213-EP2295402A2
9213-EP2295412A1
9213-EP2295413A1
9213-EP2295550A2
9213-EP2298734A2
9213-EP2298743A1
9213-EP2298783A1
9213-EP2301929A1
9213-EP2301935A1
9213-EP2305648A1
9213-EP2305674A1
9213-EP2308812A2
9213-EP2308833A2
9213-EP2308844A2
9213-EP2308845A2
9213-EP2308846A2
9213-EP2308861A1
9213-EP2308865A1
9213-EP2308872A1
9213-EP2308873A1
9213-EP2308875A1
9213-EP2311829A1
9213-EP2311831A1
9213-EP2311837A1
9213-EP2316829A1
9213-EP2316831A1
9213-EP2316834A1
9213-EP2316835A1
9213-EP2316836A1
9213-EP2374454A1
9213-EP2374792A1
9213-EP2380568A1
C20335
D10695
12843-EP2269978A2
12843-EP2269985A2
12843-EP2269991A2
12843-EP2272846A1
12843-EP2272972A1
12843-EP2272973A1
12843-EP2275469A1
12843-EP2277868A1
12843-EP2277869A1
12843-EP2277870A1
12843-EP2277872A1
12843-EP2277880A1
12843-EP2280008A2
12843-EP2281563A1
12843-EP2284150A2
12843-EP2284151A2
12843-EP2284152A2
12843-EP2284153A2
12843-EP2284156A2
12843-EP2284164A2
12843-EP2284166A1
12843-EP2286811A1
12843-EP2287140A2
12843-EP2287148A2
12843-EP2287150A2
12843-EP2287165A2
12843-EP2287166A2
12843-EP2287940A1
12843-EP2292610A1
12843-EP2292620A2
12843-EP2295416A2
12843-EP2295419A2
12843-EP2295503A1
12843-EP2298748A2
12843-EP2298749A1
12843-EP2298780A1
12843-EP2301922A1
12843-EP2301933A1
12843-EP2301940A1
12843-EP2305637A2
12843-EP2305666A1
12843-EP2305682A1
12843-EP2305683A1
12843-EP2305689A1
12843-EP2308812A2
12843-EP2308852A1
12843-EP2308860A1
12843-EP2308879A1
12843-EP2311494A1
12843-EP2311802A1
12843-EP2311803A1
12843-EP2311807A1
12843-EP2311826A2
12843-EP2311827A1
12843-EP2311830A1
12843-EP2311837A1
12843-EP2311839A1
12843-EP2314571A2
12843-EP2314582A1
12843-EP2314589A1
12843-EP2316459A1
12843-EP2316831A1
12843-EP2316837A1
12843-EP2374791A1
12843-EP2380874A2
24108-EP2269992A1
24108-EP2277865A1
24108-EP2295409A1
24108-EP2314590A1
34020-EP2292593A2
34020-EP2295055A2
34020-EP2295416A2
34020-EP2298748A2
34020-EP2298770A1
34020-EP2311453A1
34020-EP2311829A1
34020-EP2374792A1
204019-EP2277867A2
204019-EP2280003A2
(+/-)-1,3-Butanediol, ReagentPlus(R), 99.5%
Additive Screening Solution 03/Fluka kit no 78374
I14-1009
I14-4100
J-002028
( inverted exclamation markA)-1,3-Butanediol solution
(+/-)-1,3-Butanediol, ReagentPlus(R), >=99.0%
I14-13848
(+/-)-1,3-Butanediol, SAJ first grade, >=98.0%
(+/-)-1,3-Butanediol, Vetec(TM) reagent grade, 98%
F8880-3340
( inverted exclamation markA)-1,3-Butanediol 4 M solution
Butane-1,3-diol, United States Pharmacopeia (USP) Reference Standard

> <TPSA>
40.5

> <TotalAidCount>
216

> <TotalFormalCharge>
0

> <XLogP>
-0.4

> <database>
PubChem Compound

> <matchingCount>
176

> <primaryID>
7896

> <queryTranslation>
7628[CompoundID] OR 244[CompoundID] OR 25059[CompoundID] OR 7618[CompoundID] OR 7641[CompoundID] OR 5053[CompoundID] OR 637511[CompoundID] OR 7714[CompoundID] OR 7762[CompoundID] OR 25429[CompoundID]
OR 8842[CompoundID] OR 7794[CompoundID] OR 637566[CompoundID] OR 7843[CompoundID] OR 174[CompoundID] OR 7870[CompoundID] OR 86102[CompoundID] OR 7888[CompoundID] OR 7896[CompoundID] OR 1140[CompoundID
] OR 8042[CompoundID] OR 8058[CompoundID] OR 8078[CompoundID] OR 8087[CompoundID] OR 8117[CompoundID] OR 8133[CompoundID] OR 115224[CompoundID] OR 8175[CompoundID] OR 8194[CompoundID] OR 445639[Compou
ndID] OR 4944[CompoundID] OR 8294[CompoundID] OR 93541[CompoundID] OR 8360[CompoundID] OR 8363[CompoundID] OR 656612[CompoundID] OR 125098[CompoundID] OR 3352[CompoundID] OR 3303913[CompoundID] OR 648
05[CompoundID] OR 31200[CompoundID] OR 1712058[CompoundID] OR 31236[CompoundID] OR 31239[CompoundID] OR 31265[CompoundID] OR 31266[CompoundID] OR 31276[CompoundID] OR 6950273[CompoundID] OR 518659[Com
poundID] OR 14896[CompoundID] OR 14798[CompoundID] OR 14829[CompoundID] OR 14830[CompoundID] OR 8635[CompoundID] OR 23266[CompoundID] OR 4284[CompoundID] OR 8693[CompoundID] OR 22311[CompoundID] OR 87
59[CompoundID] OR 8785[CompoundID] OR 2723810[CompoundID] OR 8857[CompoundID] OR 3893[CompoundID] OR 9936739[CompoundID] OR 516892[CompoundID] OR 5430[CompoundID] OR 9017[CompoundID] OR 15433[Compound
ID] OR 107720[CompoundID] OR 9552081[CompoundID] OR 164825[CompoundID] OR 10275455[CompoundID] OR 16666[CompoundID] OR 9839306[CompoundID] OR 5282227[CompoundID] OR 23676745[CompoundID] OR 32881[Compo
undID] OR 91581[CompoundID] OR 39800[CompoundID] OR 33344[CompoundID] OR 15962220[CompoundID] OR 33528[CompoundID] OR 5365075[CompoundID] OR 62829[CompoundID] OR 162381[CompoundID] OR 517202[CompoundI
D] OR 6433353[CompoundID] OR 2730[CompoundID] OR 5372405[CompoundID] OR 36081[CompoundID] OR 3120[CompoundID] OR 3017[CompoundID] OR 2969[CompoundID] OR 18827[CompoundID] OR 19518[CompoundID] OR 19658
[CompoundID] OR 38283[CompoundID] OR 2758[CompoundID] OR 10112[CompoundID] OR 10340[CompoundID] OR 712[CompoundID] OR 5794[CompoundID] OR 3347[CompoundID] OR 104150[CompoundID] OR 2912[CompoundID] OR
2450[CompoundID] OR 40326[CompoundID] OR 40585[CompoundID] OR 517055[CompoundID] OR 10913[CompoundID] OR 108242[CompoundID] OR 62097[CompoundID] OR 41679[CompoundID] OR 54680676[CompoundID] OR 62118[C
ompoundID] OR 753[CompoundID] OR 1030[CompoundID] OR 23673837[CompoundID] OR 54678504[CompoundID] OR 11442[CompoundID] OR 11463[CompoundID] OR 22230[CompoundID] OR 440917[CompoundID] OR 6054[CompoundI
D] OR 43234[CompoundID] OR 22629[CompoundID] OR 3039[CompoundID] OR 2735067[CompoundID] OR 6144[CompoundID] OR 702[CompoundID] OR 284[CompoundID] OR 176[CompoundID] OR 91688[CompoundID] OR 22947[Compo
undID] OR 47445[CompoundID] OR 1711973[CompoundID] OR 243[CompoundID] OR 10342051[CompoundID] OR 5281875[CompoundID] OR 3776[CompoundID] OR 6224[CompoundID] OR 104926[CompoundID] OR 8755[CompoundID] O
R 338[CompoundID] OR 123622[CompoundID] OR 23954[CompoundID] OR 6334[CompoundID] OR 2537[CompoundID] OR 24261[CompoundID] OR 23665760[CompoundID] OR 83975[CompoundID] OR 784[CompoundID] OR 24437[Compo
undID] OR 5360315[CompoundID] OR 311[CompoundID] OR 6549[CompoundID] OR 107689[CompoundID] OR 17100[CompoundID] OR 24976875[CompoundID] OR 6654[CompoundID] OR 71245[CompoundID] OR 6442842[CompoundID]
OR 62334[CompoundID] OR 54698175[CompoundID] OR 6328154[CompoundID] OR 24762[CompoundID] OR 440950[CompoundID] OR 7017[CompoundID] OR 5281873[CompoundID] OR 323[CompoundID] OR 5281167[CompoundID] OR 7
175[CompoundID] OR 7292[CompoundID] OR 6335613[CompoundID] OR 7456[CompoundID] OR 7462[CompoundID]

> <resultIndex>
124

> <resultRange>
1-176

> <textQuery>
7628,244,25059,7618,7641,5053,637511,7714,7762,25429,8842,7794,637566,7843,174,7870,86102,7888,7896,1140,8042,8058,8078,8087,8117,8133,115224,8175,8194,445639,4944,8294,93541,8360,8363,656612,125098,3
352,3303913,64805,31200,1712058,31236,31239,31265,31266,31276,6950273,518659,14896,14798,14829,14830,8635,23266,4284,8693,22311,8759,8785,2723810,8857,3893,9936739,516892,5430,9017,15433,107720,955208
1,164825,10275455,16666,9839306,5282227,23676745,32881,91581,39800,33344,15962220,33528,5365075,62829,162381,517202,6433353,2730,5372405,36081,3120,3017,2969,18827,19518,19658,38283,2758,10112,10340,7
12,5794,3347,104150,2912,2450,40326,40585,517055,10913,108242,62097,41679,54680676,62118,753,1030,23673837,54678504,11442,11463,22230,440917,6054,43234,22629,3039,2735067,6144,702,284,176,91688,22947,
47445,1711973,243,10342051,5281875,3776,6224,104926,8755,338,123622,23954,6334,2537,24261,23665760,83975,784,24437,5360315,311,6549,107689,17100,24976875,6654,71245,6442842,62334,54698175,6328154,2476
2,440950,7017,5281873,323,5281167,7175,7292,6335613,7456,7462

$$$$
7,888
  SciTegic10191915303D

 32 31  0  0  1  0            999 V2000
   -0.3240    4.7130    0.1490 C   0  0
   -1.0990    3.4220    0.1490 C   0  0
   -0.2250    2.2170   -0.2040 C   0  0  3  0  0  0
   -0.5790   -1.6110    0.5030 C   0  0
   -0.9020    0.8840    0.1160 C   0  0
    0.0660   -0.2980    0.0610 C   0  0
   -0.2480   -4.1140    0.8300 C   0  0
    0.4240   -2.7610    0.5940 C   0  0
    1.4020   -2.7850   -0.5820 C   0  0
    0.3140    2.2780   -1.6330 C   0  0
    0.8850    4.7130    0.1490 O   0  0
    1.1420   -2.4160    1.7570 O   0  0
   -0.8620    5.6490    0.1490 H   0  0
   -1.4920    3.2260    1.1470 H   0  0
   -1.9450    3.4980   -0.5340 H   0  0
    0.7440    2.2860    0.2910 H   0  0
   -1.4080   -1.8740   -0.1550 H   0  0
   -1.1050   -1.4830    1.4490 H   0  0
   -1.7530    0.7160   -0.5440 H   0  0
   -1.4020    0.9280    1.0840 H   0  0
    0.9600   -0.0910    0.6490 H   0  0
    0.4970   -0.3960   -0.9360 H   0  0
   -0.9020   -4.0950    1.7010 H   0  0
    0.4980   -4.8920    0.9900 H   0  0
   -0.8490   -4.4010   -0.0320 H   0  0
    2.0080   -1.8800   -0.6240 H   0  0
    0.8660   -2.8710   -1.5270 H   0  0
    2.0780   -3.6360   -0.5030 H   0  0
    1.0600    1.5010   -1.7970 H   0  0
   -0.4940    2.1530   -2.3550 H   0  0
    0.7870    3.2410   -1.8260 H   0  0
    1.8590   -1.8210    1.4850 H   0  0
  1 11  2  0
  1  2  1  0
  2  3  1  0
  3 10  1  0
  3  5  1  0
  4  6  1  0
  4  8  1  0
  5  6  1  0
  7  8  1  0
  8  9  1  0
  8 12  1  0
  1 13  1  0
  2 14  1  0
  2 15  1  0
  3 16  1  0
  4 17  1  0
  4 18  1  0
  5 19  1  0
  5 20  1  0
  6 21  1  0
  6 22  1  0
  7 23  1  0
  7 24  1  0
  7 25  1  0
  9 26  1  0
  9 27  1  0
  9 28  1  0
 10 29  1  0
 10 30  1  0
 10 31  1  0
 12 32  1  0
M  END
> <Name>
7,888

> <OBJECTID>
9223372560844128267

> <ActiveAidCount>
0

> <AtomChiralCount>
1

> <AtomChiralDefCount>
0

> <AtomChiralUndefCount>
1

> <BondChiralCount>
0

> <BondChiralDefCount>
0

> <BondChiralUndefCount>
0

> <CID>
7888

> <CanonicalSmiles>
CC(CCCC(C)(C)O)CC=O

> <Complexity>
130

> <CovalentUnitCount>
1

> <CreateDate>
2005/03/26 00:00

> <HeavyAtomCount>
12

> <HydrogenBondAcceptorCount>
2

> <HydrogenBondDonorCount>
1

> <IUPACName>
7-hydroxy-3,7-dimethyloctanal

> <InChI>
InChI=1S/C10H20O2/c1-9(6-8-11)5-4-7-10(2,3)12/h8-9,12H,4-7H2,1-3H3

> <InChIKey>
WPFVBOQKRVRMJB-UHFFFAOYSA-N

> <IsomericSmiles>
CC(CCCC(C)(C)O)CC=O

> <IsotopeAtomCount>
0

> <MeSHHeading>
hydroxycitronellal

> <MeSHTerm>
7-hydroxycitronellal
hydroxycitronellal

> <MolecularFormula>
C10H20O2

> <MolecularWeight>
172.26

> <RotatableBondCount>
6

> <Smiles>
C(CC(CCCC(O)(C)C)C)=O

> <SourceCategory>
Legacy Depositors
Chemical Vendors
Research and Development
Curation Efforts
Governmental Organizations
NIH Initiatives
Subscription Services
Journal Publishers

> <Synonym>
Hydroxycitronellal
7-Hydroxy-3,7-dimethyloctanal
107-75-5
7-Hydroxycitronellal
Citronellal hydrate
3,7-Dimethyl-7-hydroxyoctanal
Phixia
Cyclalia
Cyclosia
Laurine
Fixol
Lilyl aldehyde
Muguet synthetic
Musuet synthetic
Muguettine principle
Musuettine principle
Octanal, 7-hydroxy-3,7-dimethyl-
Citronellal, hydroxy-
hydroxy citronellal
Oxydihydrocitronellal
7-Hydroxy-3,7-dimethyloctan-1-al
NSC 406740
FEMA No. 2583
CHEBI:53459
1-OCTANAL, 3,7-DIMETHYL-7-HYDROXY-
EINECS 203-518-7
BRN 1721290
AI3-05823
7-Hydroxy-3,7-dimethyloctanol
WPFVBOQKRVRMJB-UHFFFAOYSA-N
3,7-dimethyl-7-hydroxyoctan-1-al
Octanol, 7-hydroxy-3,7-dimethyl-
NCGC00181031-01
DSSTox_CID_22232
DSSTox_RID_79966
DSSTox_GSID_42232
W-108737
CAS-107-75-5
oxy dihydrocitronellal
Octanal,7-dimethyl-
Epitope ID:114090
EC 203-518-7
AC1L1PS6
AC1Q1R1O
SCHEMBL94185
4-01-00-04058 (Beilstein Handbook Reference)
3,7-Dimethyl-7-hydroxyoctana
GTPL2468
CHEMBL3186027
DTXSID6042232
7-hydroxy-3,7-dimethyl-octanal
CTK0H5083
FEMA 2583
KS-00000YTN
WLN: VH1Y1&3XQ1&1
1-Octanal,7-dimethyl-7-hydroxy-
Tox21_112681
Tox21_301174
5764AF
MFCD00014681
NSC163509
NSC406740
7-hydroxy-3,7-dimethyl-caprylaldehyde
AKOS015901699
Hydroxycitronellal, analytical standard
3,7-Dimethyl-7-hydroxyoctanal, 97%
LS-2819
MCULE-5086680455
NSC-163509
NSC-406740
RTR-001858
TRA0088906
Hydroxycitronellal, >=95%, FCC, FG
7-HYDROXY-3,7-DIMETHYL OCTANAL
NCGC00181031-02
NCGC00181031-03
NCGC00255072-01
AK306843
AN-22487
TR-001858
FT-0627144
SR-01000944842
SR-01000944842-1
7-Hydroxycitronellal, Odorant used in allergy studies
I14-14687

> <TPSA>
37.3

> <TotalAidCount>
279

> <TotalFormalCharge>
0

> <XLogP>
1.6

> <database>
PubChem Compound

> <matchingCount>
176

> <primaryID>
7888

> <queryTranslation>
7628[CompoundID] OR 244[CompoundID] OR 25059[CompoundID] OR 7618[CompoundID] OR 7641[CompoundID] OR 5053[CompoundID] OR 637511[CompoundID] OR 7714[CompoundID] OR 7762[CompoundID] OR 25429[CompoundID]
OR 8842[CompoundID] OR 7794[CompoundID] OR 637566[CompoundID] OR 7843[CompoundID] OR 174[CompoundID] OR 7870[CompoundID] OR 86102[CompoundID] OR 7888[CompoundID] OR 7896[CompoundID] OR 1140[CompoundID
] OR 8042[CompoundID] OR 8058[CompoundID] OR 8078[CompoundID] OR 8087[CompoundID] OR 8117[CompoundID] OR 8133[CompoundID] OR 115224[CompoundID] OR 8175[CompoundID] OR 8194[CompoundID] OR 445639[Compou
ndID] OR 4944[CompoundID] OR 8294[CompoundID] OR 93541[CompoundID] OR 8360[CompoundID] OR 8363[CompoundID] OR 656612[CompoundID] OR 125098[CompoundID] OR 3352[CompoundID] OR 3303913[CompoundID] OR 648
05[CompoundID] OR 31200[CompoundID] OR 1712058[CompoundID] OR 31236[CompoundID] OR 31239[CompoundID] OR 31265[CompoundID] OR 31266[CompoundID] OR 31276[CompoundID] OR 6950273[CompoundID] OR 518659[Com
poundID] OR 14896[CompoundID] OR 14798[CompoundID] OR 14829[CompoundID] OR 14830[CompoundID] OR 8635[CompoundID] OR 23266[CompoundID] OR 4284[CompoundID] OR 8693[CompoundID] OR 22311[CompoundID] OR 87
59[CompoundID] OR 8785[CompoundID] OR 2723810[CompoundID] OR 8857[CompoundID] OR 3893[CompoundID] OR 9936739[CompoundID] OR 516892[CompoundID] OR 5430[CompoundID] OR 9017[CompoundID] OR 15433[Compound
ID] OR 107720[CompoundID] OR 9552081[CompoundID] OR 164825[CompoundID] OR 10275455[CompoundID] OR 16666[CompoundID] OR 9839306[CompoundID] OR 5282227[CompoundID] OR 23676745[CompoundID] OR 32881[Compo
undID] OR 91581[CompoundID] OR 39800[CompoundID] OR 33344[CompoundID] OR 15962220[CompoundID] OR 33528[CompoundID] OR 5365075[CompoundID] OR 62829[CompoundID] OR 162381[CompoundID] OR 517202[CompoundI
D] OR 6433353[CompoundID] OR 2730[CompoundID] OR 5372405[CompoundID] OR 36081[CompoundID] OR 3120[CompoundID] OR 3017[CompoundID] OR 2969[CompoundID] OR 18827[CompoundID] OR 19518[CompoundID] OR 19658
[CompoundID] OR 38283[CompoundID] OR 2758[CompoundID] OR 10112[CompoundID] OR 10340[CompoundID] OR 712[CompoundID] OR 5794[CompoundID] OR 3347[CompoundID] OR 104150[CompoundID] OR 2912[CompoundID] OR
2450[CompoundID] OR 40326[CompoundID] OR 40585[CompoundID] OR 517055[CompoundID] OR 10913[CompoundID] OR 108242[CompoundID] OR 62097[CompoundID] OR 41679[CompoundID] OR 54680676[CompoundID] OR 62118[C
ompoundID] OR 753[CompoundID] OR 1030[CompoundID] OR 23673837[CompoundID] OR 54678504[CompoundID] OR 11442[CompoundID] OR 11463[CompoundID] OR 22230[CompoundID] OR 440917[CompoundID] OR 6054[CompoundI
D] OR 43234[CompoundID] OR 22629[CompoundID] OR 3039[CompoundID] OR 2735067[CompoundID] OR 6144[CompoundID] OR 702[CompoundID] OR 284[CompoundID] OR 176[CompoundID] OR 91688[CompoundID] OR 22947[Compo
undID] OR 47445[CompoundID] OR 1711973[CompoundID] OR 243[CompoundID] OR 10342051[CompoundID] OR 5281875[CompoundID] OR 3776[CompoundID] OR 6224[CompoundID] OR 104926[CompoundID] OR 8755[CompoundID] O
R 338[CompoundID] OR 123622[CompoundID] OR 23954[CompoundID] OR 6334[CompoundID] OR 2537[CompoundID] OR 24261[CompoundID] OR 23665760[CompoundID] OR 83975[CompoundID] OR 784[CompoundID] OR 24437[Compo
undID] OR 5360315[CompoundID] OR 311[CompoundID] OR 6549[CompoundID] OR 107689[CompoundID] OR 17100[CompoundID] OR 24976875[CompoundID] OR 6654[CompoundID] OR 71245[CompoundID] OR 6442842[CompoundID]
OR 62334[CompoundID] OR 54698175[CompoundID] OR 6328154[CompoundID] OR 24762[CompoundID] OR 440950[CompoundID] OR 7017[CompoundID] OR 5281873[CompoundID] OR 323[CompoundID] OR 5281167[CompoundID] OR 7
175[CompoundID] OR 7292[CompoundID] OR 6335613[CompoundID] OR 7456[CompoundID] OR 7462[CompoundID]

> <resultIndex>
125

> <resultRange>
1-176

> <textQuery>
7628,244,25059,7618,7641,5053,637511,7714,7762,25429,8842,7794,637566,7843,174,7870,86102,7888,7896,1140,8042,8058,8078,8087,8117,8133,115224,8175,8194,445639,4944,8294,93541,8360,8363,656612,125098,3
352,3303913,64805,31200,1712058,31236,31239,31265,31266,31276,6950273,518659,14896,14798,14829,14830,8635,23266,4284,8693,22311,8759,8785,2723810,8857,3893,9936739,516892,5430,9017,15433,107720,955208
1,164825,10275455,16666,9839306,5282227,23676745,32881,91581,39800,33344,15962220,33528,5365075,62829,162381,517202,6433353,2730,5372405,36081,3120,3017,2969,18827,19518,19658,38283,2758,10112,10340,7
12,5794,3347,104150,2912,2450,40326,40585,517055,10913,108242,62097,41679,54680676,62118,753,1030,23673837,54678504,11442,11463,22230,440917,6054,43234,22629,3039,2735067,6144,702,284,176,91688,22947,
47445,1711973,243,10342051,5281875,3776,6224,104926,8755,338,123622,23954,6334,2537,24261,23665760,83975,784,24437,5360315,311,6549,107689,17100,24976875,6654,71245,6442842,62334,54698175,6328154,2476
2,440950,7017,5281873,323,5281167,7175,7292,6335613,7456,7462

$$$$
7,870
  SciTegic10191915303D

 22 21  0  0  1  0            999 V2000
   -2.2520    1.0160    0.0100 O   0  0
    1.2250   -0.9120    1.5310 O   0  0
   -0.8460    0.9260   -0.0080 C   0  0
   -0.6350   -0.5860    0.0780 C   0  0
    0.8420   -0.9710    0.1760 C   0  0  3  0  0  0
   -0.3050    1.6680    1.2170 C   0  0
   -0.3440    1.5180   -1.3240 C   0  0
    1.1170   -2.3830   -0.3380 C   0  0
   -2.5680    0.6990   -0.8510 H   0  0
    2.1900   -1.0020    1.5610 H   0  0
   -1.1990   -1.0060    0.9100 H   0  0
   -1.1090   -1.0900   -0.7640 H   0  0
    1.4610   -0.2680   -0.3810 H   0  0
   -0.6390    1.2110    2.1490 H   0  0
   -0.6390    2.7050    1.2170 H   0  0
    0.7850    1.6680    1.2170 H   0  0
   -0.7010    0.9530   -2.1850 H   0  0
    0.7440    1.5220   -1.3550 H   0  0
   -0.6850    2.5470   -1.4390 H   0  0
    2.1760   -2.6270   -0.2460 H   0  0
    0.5350   -3.1170    0.2170 H   0  0
    0.8460   -2.4710   -1.3910 H   0  0
  1  3  1  0
  2  5  1  0
  3  4  1  0
  3  6  1  0
  3  7  1  0
  4  5  1  0
  5  8  1  0
  1  9  1  0
  2 10  1  0
  4 11  1  0
  4 12  1  0
  5 13  1  0
  6 14  1  0
  6 15  1  0
  6 16  1  0
  7 17  1  0
  7 18  1  0
  7 19  1  0
  8 20  1  0
  8 21  1  0
  8 22  1  0
M  END
> <Name>
7,870

> <OBJECTID>
9223372565139095563

> <ActiveAidCount>
1

> <AtomChiralCount>
1

> <AtomChiralDefCount>
0

> <AtomChiralUndefCount>
1

> <BondChiralCount>
0

> <BondChiralDefCount>
0

> <BondChiralUndefCount>
0

> <CID>
7870

> <CanonicalSmiles>
CC(CC(C)(C)O)O

> <Complexity>
68.9

> <CovalentUnitCount>
1

> <CreateDate>
2005/03/26 00:00

> <HeavyAtomCount>
8

> <HydrogenBondAcceptorCount>
2

> <HydrogenBondDonorCount>
2

> <IUPACName>
2-methylpentane-2,4-diol

> <InChI>
InChI=1S/C6H14O2/c1-5(7)4-6(2,3)8/h5,7-8H,4H2,1-3H3

> <InChIKey>
SVTBMSDMJJWYQN-UHFFFAOYSA-N

> <IsomericSmiles>
CC(CC(C)(C)O)O

> <IsotopeAtomCount>
0

> <MeSHHeading>
hexylene glycol

> <MeSHTerm>
2-methylpentane-2,4-diol
hexylene glycol
hexylene glycol, titanium(4+) salt
2-methyl-2,4-pentanediol

> <MolecularFormula>
C6H14O2

> <MolecularWeight>
118.17

> <RotatableBondCount>
2

> <Smiles>
OC(C)(C)CC(C)O

> <SourceCategory>
Chemical Vendors
Legacy Depositors
Research and Development
Curation Efforts
Governmental Organizations
NIH Initiatives
Subscription Services
Journal Publishers

> <Synonym>
Hexylene glycol
2-METHYL-2,4-PENTANEDIOL
107-41-5
2-Methylpentane-2,4-diol
Diolane
Pinakon
2,4-Dihydroxy-2-methylpentane
2,4-Pentanediol, 2-methyl-
Isol
4-Methyl-2,4-pentanediol
1,1,3-Trimethyltrimethylenediol
2-Methyl pentane-2,4-diol
2-Methyl-2,4-pentandiol
Caswell No. 574
alpha,alpha,alpha'-Trimethyltrimethylene glycol
1,3-dimethyl-3-hydroxybutanol
Hexylene glycol [NF]
HSDB 1126
(+-)-2-Methyl-2,4-pentanediol
1,3,3-trimethyl-1,3-propanediol
NSC 8098
EINECS 203-489-0
MFCD00004547
EPA Pesticide Chemical Code 068601
BRN 1098298
AI3-00919
CHEBI:62995
1,1,3-trimethyl-1,3-propanediol
(+/-)-2-Methyl-2,4-pentanediol
Hexylene glycol (NF)
R-(-)-2-METHYL-2,4-PENTANEDIOL
DSSTox_CID_1885
DSSTox_RID_76384
DSSTox_GSID_21885
UNII-KEH0A3F75J
2-Methyl-2,4-pentanediol, 99%
CAS-107-41-5
2-Methylpentan-2,4-diol
CCRIS 9439
KEH0A3F75J
Hexylene glycol, 99%
AC1L1PQO
AC1Q2BUQ
(+/-)-Hexylene glycol
2methyl-2,4-pentanediol
2-methyl-2-4-pentanediol
EC 203-489-0
Hexylene glycol, >=99%
Hexylene glycol, 99.5%
ACMC-1BS78
SCHEMBL19379
2,4-Pentanediol,2-methyl-
2-Methyl-pentane-2,4-diol
1,3-Trimethyltrimethylenediol
4-01-00-02565 (Beilstein Handbook Reference)
KSC489M3B
CHEMBL2104293
DTXSID5021885
CTK3I9630
KS-00000VEM
NSC8098
SVTBMSDMJJWYQN-UHFFFAOYSA-N
HMS3264E19
HY-B0903
NSC-8098
Hexylene glycol, analytical standard
Tox21_201975
Tox21_302818
2-Methyl-2,4-pentanediol, 99+%
ANW-15793
SBB061336
AKOS015901459
CCG-213719
MCULE-5281049691
RTR-032435
TRA0072741
WLN: QY1 & 1XQ1 & 1
NCGC00249143-01
NCGC00256494-01
NCGC00259524-01
(+/-)-2,4-Dihydroxy-2-methyl pentane
AC-13749
AN-22478
BC206685
Hexylene glycol, BioXtra, >=99% (GC)
(^+)-2-Methyl-2,4-pentanediol, 98%
LS-101663
TR-032435
FT-0605756
FT-0613069
Hexylene glycol, puriss., >=99.0% (GC)
M0384
ST51047360
.alpha.,.alpha.'-Trimethyltrimethylene glycol
Hexylene glycol, BioUltra, >=99.0% (GC)
D04439
AB01563179_01
J-640306
J-660006
W-108748
I14-13847
Hexylene glycol, United States Pharmacopeia (USP) Reference Standard
( inverted exclamation markA)-2-(1/4)x>>u-2,4-Ii paragraph signthorn (1/4)
Hexylene glycol, PharmaGrade, USP/NF, Manufactured under appropriate GMP controls for pharma or biopharmaceutical production

> <TPSA>
40.5

> <TotalAidCount>
225

> <TotalFormalCharge>
0

> <XLogP>
0.3

> <database>
PubChem Compound

> <matchingCount>
176

> <primaryID>
7870

> <queryTranslation>
7628[CompoundID] OR 244[CompoundID] OR 25059[CompoundID] OR 7618[CompoundID] OR 7641[CompoundID] OR 5053[CompoundID] OR 637511[CompoundID] OR 7714[CompoundID] OR 7762[CompoundID] OR 25429[CompoundID]
OR 8842[CompoundID] OR 7794[CompoundID] OR 637566[CompoundID] OR 7843[CompoundID] OR 174[CompoundID] OR 7870[CompoundID] OR 86102[CompoundID] OR 7888[CompoundID] OR 7896[CompoundID] OR 1140[CompoundID
] OR 8042[CompoundID] OR 8058[CompoundID] OR 8078[CompoundID] OR 8087[CompoundID] OR 8117[CompoundID] OR 8133[CompoundID] OR 115224[CompoundID] OR 8175[CompoundID] OR 8194[CompoundID] OR 445639[Compou
ndID] OR 4944[CompoundID] OR 8294[CompoundID] OR 93541[CompoundID] OR 8360[CompoundID] OR 8363[CompoundID] OR 656612[CompoundID] OR 125098[CompoundID] OR 3352[CompoundID] OR 3303913[CompoundID] OR 648
05[CompoundID] OR 31200[CompoundID] OR 1712058[CompoundID] OR 31236[CompoundID] OR 31239[CompoundID] OR 31265[CompoundID] OR 31266[CompoundID] OR 31276[CompoundID] OR 6950273[CompoundID] OR 518659[Com
poundID] OR 14896[CompoundID] OR 14798[CompoundID] OR 14829[CompoundID] OR 14830[CompoundID] OR 8635[CompoundID] OR 23266[CompoundID] OR 4284[CompoundID] OR 8693[CompoundID] OR 22311[CompoundID] OR 87
59[CompoundID] OR 8785[CompoundID] OR 2723810[CompoundID] OR 8857[CompoundID] OR 3893[CompoundID] OR 9936739[CompoundID] OR 516892[CompoundID] OR 5430[CompoundID] OR 9017[CompoundID] OR 15433[Compound
ID] OR 107720[CompoundID] OR 9552081[CompoundID] OR 164825[CompoundID] OR 10275455[CompoundID] OR 16666[CompoundID] OR 9839306[CompoundID] OR 5282227[CompoundID] OR 23676745[CompoundID] OR 32881[Compo
undID] OR 91581[CompoundID] OR 39800[CompoundID] OR 33344[CompoundID] OR 15962220[CompoundID] OR 33528[CompoundID] OR 5365075[CompoundID] OR 62829[CompoundID] OR 162381[CompoundID] OR 517202[CompoundI
D] OR 6433353[CompoundID] OR 2730[CompoundID] OR 5372405[CompoundID] OR 36081[CompoundID] OR 3120[CompoundID] OR 3017[CompoundID] OR 2969[CompoundID] OR 18827[CompoundID] OR 19518[CompoundID] OR 19658
[CompoundID] OR 38283[CompoundID] OR 2758[CompoundID] OR 10112[CompoundID] OR 10340[CompoundID] OR 712[CompoundID] OR 5794[CompoundID] OR 3347[CompoundID] OR 104150[CompoundID] OR 2912[CompoundID] OR
2450[CompoundID] OR 40326[CompoundID] OR 40585[CompoundID] OR 517055[CompoundID] OR 10913[CompoundID] OR 108242[CompoundID] OR 62097[CompoundID] OR 41679[CompoundID] OR 54680676[CompoundID] OR 62118[C
ompoundID] OR 753[CompoundID] OR 1030[CompoundID] OR 23673837[CompoundID] OR 54678504[CompoundID] OR 11442[CompoundID] OR 11463[CompoundID] OR 22230[CompoundID] OR 440917[CompoundID] OR 6054[CompoundI
D] OR 43234[CompoundID] OR 22629[CompoundID] OR 3039[CompoundID] OR 2735067[CompoundID] OR 6144[CompoundID] OR 702[CompoundID] OR 284[CompoundID] OR 176[CompoundID] OR 91688[CompoundID] OR 22947[Compo
undID] OR 47445[CompoundID] OR 1711973[CompoundID] OR 243[CompoundID] OR 10342051[CompoundID] OR 5281875[CompoundID] OR 3776[CompoundID] OR 6224[CompoundID] OR 104926[CompoundID] OR 8755[CompoundID] O
R 338[CompoundID] OR 123622[CompoundID] OR 23954[CompoundID] OR 6334[CompoundID] OR 2537[CompoundID] OR 24261[CompoundID] OR 23665760[CompoundID] OR 83975[CompoundID] OR 784[CompoundID] OR 24437[Compo
undID] OR 5360315[CompoundID] OR 311[CompoundID] OR 6549[CompoundID] OR 107689[CompoundID] OR 17100[CompoundID] OR 24976875[CompoundID] OR 6654[CompoundID] OR 71245[CompoundID] OR 6442842[CompoundID]
OR 62334[CompoundID] OR 54698175[CompoundID] OR 6328154[CompoundID] OR 24762[CompoundID] OR 440950[CompoundID] OR 7017[CompoundID] OR 5281873[CompoundID] OR 323[CompoundID] OR 5281167[CompoundID] OR 7
175[CompoundID] OR 7292[CompoundID] OR 6335613[CompoundID] OR 7456[CompoundID] OR 7462[CompoundID]

> <resultIndex>
126

> <resultRange>
1-176

> <textQuery>
7628,244,25059,7618,7641,5053,637511,7714,7762,25429,8842,7794,637566,7843,174,7870,86102,7888,7896,1140,8042,8058,8078,8087,8117,8133,115224,8175,8194,445639,4944,8294,93541,8360,8363,656612,125098,3
352,3303913,64805,31200,1712058,31236,31239,31265,31266,31276,6950273,518659,14896,14798,14829,14830,8635,23266,4284,8693,22311,8759,8785,2723810,8857,3893,9936739,516892,5430,9017,15433,107720,955208
1,164825,10275455,16666,9839306,5282227,23676745,32881,91581,39800,33344,15962220,33528,5365075,62829,162381,517202,6433353,2730,5372405,36081,3120,3017,2969,18827,19518,19658,38283,2758,10112,10340,7
12,5794,3347,104150,2912,2450,40326,40585,517055,10913,108242,62097,41679,54680676,62118,753,1030,23673837,54678504,11442,11463,22230,440917,6054,43234,22629,3039,2735067,6144,702,284,176,91688,22947,
47445,1711973,243,10342051,5281875,3776,6224,104926,8755,338,123622,23954,6334,2537,24261,23665760,83975,784,24437,5360315,311,6549,107689,17100,24976875,6654,71245,6442842,62334,54698175,6328154,2476
2,440950,7017,5281873,323,5281167,7175,7292,6335613,7456,7462

$$$$
7,843
  SciTegic10191915303D

 14 13  0  0  0  0            999 V2000
   -0.2290   -0.3140    0.6580 C   0  0
    0.2290    0.3110   -0.6600 C   0  0
    0.3130    0.4260    1.8810 C   0  0
   -0.3130   -0.4300   -1.8830 C   0  0
    0.0410   -1.3710    0.6970 H   0  0
   -1.3140   -0.3810    0.6970 H   0  0
   -0.0410    1.3670   -0.6990 H   0  0
    1.3160    0.3770   -0.6990 H   0  0
   -0.0210   -0.0310    2.8130 H   0  0
   -0.0210    1.4650    1.8810 H   0  0
    1.4020    0.4260    1.8810 H   0  0
    0.0230    0.0490   -2.8030 H   0  0
    0.0180   -1.4690   -1.8810 H   0  0
   -1.4020   -0.4260   -1.8850 H   0  0
  1  2  1  0
  1  3  1  0
  2  4  1  0
  1  5  1  0
  1  6  1  0
  2  7  1  0
  2  8  1  0
  3  9  1  0
  3 10  1  0
  3 11  1  0
  4 12  1  0
  4 13  1  0
  4 14  1  0
M  END
> <Name>
7,843

> <OBJECTID>
9223372569434062859

> <ActiveAidCount>
0

> <AtomChiralCount>
0

> <AtomChiralDefCount>
0

> <AtomChiralUndefCount>
0

> <BondChiralCount>
0

> <BondChiralDefCount>
0

> <BondChiralUndefCount>
0

> <CID>
7843

> <CanonicalSmiles>
CCCC

> <Complexity>
2

> <CovalentUnitCount>
1

> <CreateDate>
2004/09/16 00:00

> <HeavyAtomCount>
4

> <HydrogenBondAcceptorCount>
0

> <HydrogenBondDonorCount>
0

> <IUPACName>
butane

> <InChI>
InChI=1S/C4H10/c1-3-4-2/h3-4H2,1-2H3

> <InChIKey>
IJDNQMDRQITEOD-UHFFFAOYSA-N

> <IsomericSmiles>
CCCC

> <IsotopeAtomCount>
0

> <MeSHHeading>
butane

> <MeSHTerm>
n-butane
butane

> <MolecularFormula>
C4H10

> <MolecularWeight>
58.12

> <RotatableBondCount>
1

> <Smiles>
C(C)CC

> <SourceCategory>
Chemical Vendors
Legacy Depositors
Research and Development
Curation Efforts
Governmental Organizations
NIH Initiatives
Subscription Services
Journal Publishers

> <Synonym>
BUTANE
n-Butane
Diethyl
106-97-8
Methylethylmethane
butan
Butanen
Butani
Butyl hydride
Butane, pure
Butanen [Dutch]
R 600 (alkane)
Butani [Italian]
HC 600 (hydrocarbon)
A 21 (lowing agent)
Butyl Group
UNII-6LV4FOR43R
HC 600
Butane [NF]
CCRIS 2279
HSDB 944
A 21
R 600
EINECS 203-448-7
UN1011
6LV4FOR43R
E943a
n-C4H10
CHEBI:37808
IJDNQMDRQITEOD-UHFFFAOYSA-N
Butane (NF)
Butane-silver
Hydrocarbons, C1-4
Hydrocarbons, C4-5
NBU
Butane [USAN]
Mixed (C1-C4) hydrocarbons from absorber
n-Butan
Sec-Butyl Group
n-Butane(Fine)
1,2-dimethyethane
1,2-dimethylethane
EINECS 270-682-4
EINECS 271-032-2
1,2-dimethyl-ethane
Butane-propane mixture
Butane, 99%
Freon 600
AC1L1POF
Butane or butane mixtures
EC 203-448-7
BUTANE (D10)
Mixed (C1-C4) gases from polymerization process
Mixed (C1-C4) hydrocarbons from thermal cracking
68476-42-6
68514-31-8
BUTANE (1-D1)
BUTANE (2-D1)
Mixed (C1-C4) hydrocarbons from crude distillation
CHEMBL134702
H-C4H9
Jsp000618
DTXSID7024665
CTK0H5387
E 943a
E-943a
ZINC8214510
ZX-AT020149
EINECS 270-653-6
Butane 2000 microg/mL in Methanol
LS-416
MFCD00009424
OR8385
AKOS015917446
AKOS032949915
ZINC256080833
ZINC306122401
FCH1115645
UN 1011
B0677
R-600
3991-EP2272935A1
3991-EP2274983A1
3991-EP2275404A1
3991-EP2275417A2
3991-EP2277861A1
3991-EP2277878A1
3991-EP2281812A1
3991-EP2281821A1
3991-EP2284162A2
3991-EP2284163A2
3991-EP2287141A1
3991-EP2289509A2
3991-EP2295438A1
3991-EP2301918A1
3991-EP2305243A1
3991-EP2305254A1
3991-EP2305687A1
3991-EP2308858A1
3991-EP2311816A1
3991-EP2311817A1
3991-EP2316470A2
3991-EP2371803A1
3991-EP2377843A1
3991-EP2377845A1
3991-EP2380568A1
C21390
D03186
13067-EP2269990A1
13067-EP2270004A1
13067-EP2270006A1
13067-EP2272827A1
13067-EP2272972A1
13067-EP2272973A1
13067-EP2274983A1
13067-EP2275404A1
13067-EP2275412A1
13067-EP2275414A1
13067-EP2277867A2
13067-EP2277872A1
13067-EP2280003A2
13067-EP2281821A1
13067-EP2283898A1
13067-EP2284157A1
13067-EP2284174A1
13067-EP2286812A1
13067-EP2292228A1
13067-EP2292590A2
13067-EP2295402A2
13067-EP2295426A1
13067-EP2295427A1
13067-EP2295429A1
13067-EP2295437A1
13067-EP2298731A1
13067-EP2298734A2
13067-EP2298763A1
13067-EP2298766A1
13067-EP2298775A1
13067-EP2298776A1
13067-EP2305655A2
13067-EP2305671A1
13067-EP2305808A1
13067-EP2308833A2
13067-EP2308844A2
13067-EP2308845A2
13067-EP2308846A2
13067-EP2308873A1
13067-EP2308875A1
13067-EP2311808A1
13067-EP2311814A1
13067-EP2311815A1
13067-EP2311823A1
13067-EP2311829A1
13067-EP2311831A1
13067-EP2311842A2
13067-EP2314584A1
13067-EP2316831A1
13067-EP2316836A1
13067-EP2371811A2
13067-EP2371823A1
15412-EP2305683A1
15412-EP2311839A1
15412-EP2314589A1
15412-EP2316837A1
78035-EP2272846A1
78035-EP2277868A1
78035-EP2277869A1
78035-EP2277870A1
78035-EP2292608A1
78035-EP2298076A1
78035-EP2298077A1
78035-EP2301353A1
78035-EP2305031A1
78035-EP2305034A1
78035-EP2305035A1
78035-EP2308866A1
I14-9541
Butane or butane mixtures [UN1011] [Flammable gas]
Butane or butane mixtures [UN1011] [Flammable gas]
Butane, fuel for Micro Torch, contains no CFC gases
InChI=1/C4H10/c1-3-4-2/h3-4H2,1-2H
UNII-5K616HU99V component IJDNQMDRQITEOD-UHFFFAOYSA-N
06005800-A997-4214-BF1C-5063E9E46167
SBU

> <TPSA>
0

> <TotalAidCount>
7

> <TotalFormalCharge>
0

> <XLogP>
2.9

> <database>
PubChem Compound

> <matchingCount>
176

> <primaryID>
7843

> <queryTranslation>
7628[CompoundID] OR 244[CompoundID] OR 25059[CompoundID] OR 7618[CompoundID] OR 7641[CompoundID] OR 5053[CompoundID] OR 637511[CompoundID] OR 7714[CompoundID] OR 7762[CompoundID] OR 25429[CompoundID]
OR 8842[CompoundID] OR 7794[CompoundID] OR 637566[CompoundID] OR 7843[CompoundID] OR 174[CompoundID] OR 7870[CompoundID] OR 86102[CompoundID] OR 7888[CompoundID] OR 7896[CompoundID] OR 1140[CompoundID
] OR 8042[CompoundID] OR 8058[CompoundID] OR 8078[CompoundID] OR 8087[CompoundID] OR 8117[CompoundID] OR 8133[CompoundID] OR 115224[CompoundID] OR 8175[CompoundID] OR 8194[CompoundID] OR 445639[Compou
ndID] OR 4944[CompoundID] OR 8294[CompoundID] OR 93541[CompoundID] OR 8360[CompoundID] OR 8363[CompoundID] OR 656612[CompoundID] OR 125098[CompoundID] OR 3352[CompoundID] OR 3303913[CompoundID] OR 648
05[CompoundID] OR 31200[CompoundID] OR 1712058[CompoundID] OR 31236[CompoundID] OR 31239[CompoundID] OR 31265[CompoundID] OR 31266[CompoundID] OR 31276[CompoundID] OR 6950273[CompoundID] OR 518659[Com
poundID] OR 14896[CompoundID] OR 14798[CompoundID] OR 14829[CompoundID] OR 14830[CompoundID] OR 8635[CompoundID] OR 23266[CompoundID] OR 4284[CompoundID] OR 8693[CompoundID] OR 22311[CompoundID] OR 87
59[CompoundID] OR 8785[CompoundID] OR 2723810[CompoundID] OR 8857[CompoundID] OR 3893[CompoundID] OR 9936739[CompoundID] OR 516892[CompoundID] OR 5430[CompoundID] OR 9017[CompoundID] OR 15433[Compound
ID] OR 107720[CompoundID] OR 9552081[CompoundID] OR 164825[CompoundID] OR 10275455[CompoundID] OR 16666[CompoundID] OR 9839306[CompoundID] OR 5282227[CompoundID] OR 23676745[CompoundID] OR 32881[Compo
undID] OR 91581[CompoundID] OR 39800[CompoundID] OR 33344[CompoundID] OR 15962220[CompoundID] OR 33528[CompoundID] OR 5365075[CompoundID] OR 62829[CompoundID] OR 162381[CompoundID] OR 517202[CompoundI
D] OR 6433353[CompoundID] OR 2730[CompoundID] OR 5372405[CompoundID] OR 36081[CompoundID] OR 3120[CompoundID] OR 3017[CompoundID] OR 2969[CompoundID] OR 18827[CompoundID] OR 19518[CompoundID] OR 19658
[CompoundID] OR 38283[CompoundID] OR 2758[CompoundID] OR 10112[CompoundID] OR 10340[CompoundID] OR 712[CompoundID] OR 5794[CompoundID] OR 3347[CompoundID] OR 104150[CompoundID] OR 2912[CompoundID] OR
2450[CompoundID] OR 40326[CompoundID] OR 40585[CompoundID] OR 517055[CompoundID] OR 10913[CompoundID] OR 108242[CompoundID] OR 62097[CompoundID] OR 41679[CompoundID] OR 54680676[CompoundID] OR 62118[C
ompoundID] OR 753[CompoundID] OR 1030[CompoundID] OR 23673837[CompoundID] OR 54678504[CompoundID] OR 11442[CompoundID] OR 11463[CompoundID] OR 22230[CompoundID] OR 440917[CompoundID] OR 6054[CompoundI
D] OR 43234[CompoundID] OR 22629[CompoundID] OR 3039[CompoundID] OR 2735067[CompoundID] OR 6144[CompoundID] OR 702[CompoundID] OR 284[CompoundID] OR 176[CompoundID] OR 91688[CompoundID] OR 22947[Compo
undID] OR 47445[CompoundID] OR 1711973[CompoundID] OR 243[CompoundID] OR 10342051[CompoundID] OR 5281875[CompoundID] OR 3776[CompoundID] OR 6224[CompoundID] OR 104926[CompoundID] OR 8755[CompoundID] O
R 338[CompoundID] OR 123622[CompoundID] OR 23954[CompoundID] OR 6334[CompoundID] OR 2537[CompoundID] OR 24261[CompoundID] OR 23665760[CompoundID] OR 83975[CompoundID] OR 784[CompoundID] OR 24437[Compo
undID] OR 5360315[CompoundID] OR 311[CompoundID] OR 6549[CompoundID] OR 107689[CompoundID] OR 17100[CompoundID] OR 24976875[CompoundID] OR 6654[CompoundID] OR 71245[CompoundID] OR 6442842[CompoundID]
OR 62334[CompoundID] OR 54698175[CompoundID] OR 6328154[CompoundID] OR 24762[CompoundID] OR 440950[CompoundID] OR 7017[CompoundID] OR 5281873[CompoundID] OR 323[CompoundID] OR 5281167[CompoundID] OR 7
175[CompoundID] OR 7292[CompoundID] OR 6335613[CompoundID] OR 7456[CompoundID] OR 7462[CompoundID]

> <resultIndex>
127

> <resultRange>
1-176

> <textQuery>
7628,244,25059,7618,7641,5053,637511,7714,7762,25429,8842,7794,637566,7843,174,7870,86102,7888,7896,1140,8042,8058,8078,8087,8117,8133,115224,8175,8194,445639,4944,8294,93541,8360,8363,656612,125098,3
352,3303913,64805,31200,1712058,31236,31239,31265,31266,31276,6950273,518659,14896,14798,14829,14830,8635,23266,4284,8693,22311,8759,8785,2723810,8857,3893,9936739,516892,5430,9017,15433,107720,955208
1,164825,10275455,16666,9839306,5282227,23676745,32881,91581,39800,33344,15962220,33528,5365075,62829,162381,517202,6433353,2730,5372405,36081,3120,3017,2969,18827,19518,19658,38283,2758,10112,10340,7
12,5794,3347,104150,2912,2450,40326,40585,517055,10913,108242,62097,41679,54680676,62118,753,1030,23673837,54678504,11442,11463,22230,440917,6054,43234,22629,3039,2735067,6144,702,284,176,91688,22947,
47445,1711973,243,10342051,5281875,3776,6224,104926,8755,338,123622,23954,6334,2537,24261,23665760,83975,784,24437,5360315,311,6549,107689,17100,24976875,6654,71245,6442842,62334,54698175,6328154,2476
2,440950,7017,5281873,323,5281167,7175,7292,6335613,7456,7462

$$$$
7,794
  SciTegic10191915303D

 29 28  0  0  1  0            999 V2000
    1.1570    4.4910    0.5400 O   0  0
    0.0340    2.0030    0.1360 C   0  0  3  0  0  0
   -0.6380    0.6640    0.4400 C   0  0
    0.3240   -0.5190    0.3220 C   0  0
   -0.8270    3.2000    0.5400 C   0  0
   -0.3070   -1.8170    0.7480 C   0  0
    0.0360   -2.9410    0.0970 C   0  0
   -0.0520    4.4910    0.5400 C   0  0
    0.5360    2.0970   -1.3050 C   0  0
    1.0170   -3.0190   -1.0430 C   0  0
   -0.5950   -4.2390    0.5220 C   0  0
    1.0160    2.0580    0.6070 H   0  0
   -1.5090    0.5160   -0.1980 H   0  0
   -1.1070    0.6830    1.4240 H   0  0
    1.1680   -0.2870    0.9730 H   0  0
    0.7040   -0.6080   -0.6960 H   0  0
   -1.1880    2.9850    1.5460 H   0  0
   -1.6940    3.2890   -0.1140 H   0  0
   -1.0270   -1.9450    1.5430 H   0  0
   -0.5900    5.4270    0.5400 H   0  0
    1.2670    1.3150   -1.5110 H   0  0
   -0.2910    2.0050   -2.0090 H   0  0
    1.0190    3.0580   -1.4830 H   0  0
    1.9040   -2.4040   -0.8960 H   0  0
    0.5370   -2.6970   -1.9670 H   0  0
    1.3450   -4.0500   -1.1790 H   0  0
   -1.5780   -4.1160    0.9780 H   0  0
    0.0460   -4.7440    1.2450 H   0  0
   -0.7070   -4.8970   -0.3400 H   0  0
  1  8  2  0
  2  3  1  0
  2  5  1  0
  2  9  1  0
  3  4  1  0
  4  6  1  0
  5  8  1  0
  6  7  2  0
  7 10  1  0
  7 11  1  0
  2 12  1  0
  3 13  1  0
  3 14  1  0
  4 15  1  0
  4 16  1  0
  5 17  1  0
  5 18  1  0
  6 19  1  0
  8 20  1  0
  9 21  1  0
  9 22  1  0
  9 23  1  0
 10 24  1  0
 10 25  1  0
 10 26  1  0
 11 27  1  0
 11 28  1  0
 11 29  1  0
M  END
> <Name>
7,794

> <OBJECTID>
9223372573729030155

> <ActiveAidCount>
0

> <AtomChiralCount>
1

> <AtomChiralDefCount>
0

> <AtomChiralUndefCount>
1

> <BondChiralCount>
0

> <BondChiralDefCount>
0

> <BondChiralUndefCount>
0

> <CID>
7794

> <CanonicalSmiles>
CC(CCC=C(C)C)CC=O

> <Complexity>
132

> <CovalentUnitCount>
1

> <CreateDate>
2005/03/26 00:00

> <HeavyAtomCount>
11

> <HydrogenBondAcceptorCount>
1

> <HydrogenBondDonorCount>
0

> <IUPACName>
3,7-dimethyloct-6-enal

> <InChI>
InChI=1S/C10H18O/c1-9(2)5-4-6-10(3)7-8-11/h5,8,10H,4,6-7H2,1-3H3

> <InChIKey>
NEHNMFOYXAPHSD-UHFFFAOYSA-N

> <IsomericSmiles>
CC(CCC=C(C)C)CC=O

> <IsotopeAtomCount>
0

> <MeSHHeading>
citronellal

> <MeSHTerm>
citronellal, (R)-isomer
citronellal, (+-)-isomer
citronellal
citronellal, (S)-isomer

> <MolecularFormula>
C10H18O

> <MolecularWeight>
154.25

> <RotatableBondCount>
5

> <Smiles>
O=CCC(C)CC\C=C(\C)/C

> <SourceCategory>
Chemical Vendors
Legacy Depositors
Research and Development
Curation Efforts
Governmental Organizations
NIH Initiatives
Subscription Services
Journal Publishers

> <Synonym>
CITRONELLAL
106-23-0
3,7-Dimethyloct-6-enal
Rhodinal
3,7-Dimethyl-6-octenal
2,3-Dihydrocitral
6-Octenal, 3,7-dimethyl-
Citronellel
3,7-Dimethyl-6-octen-1-al
beta-Citronellal
Citronella
D-Rhodinal
CITRONELLOL,(D)
.beta.-Citronellal
Rhodinal (VAN)
Citronella (natural)
(+/-)-Citronellal
NSC 46106
FEMA No. 2307
HSDB 594
CHEBI:47856
(+/-)-3,7-Dimethyl-6-octenal
EINECS 203-376-6
MFCD00038090
8000-29-1
3,7-dimethyl-oct-6-enal
AI3-00203
NEHNMFOYXAPHSD-UHFFFAOYSA-N
NSC46106
Citronellal, 93%, pract.
J-502100
W-108770
6-Octenal, 3,7-dimethyl-, (3S)-
CCRIS 8421
beta -Citronellal
racemic citronellal
(+/-) citronellal
6-Octenal, 3,7-dimethyl-, (S)-
6-Octenal,7-dimethyl-
AC1L1PKC
ACMC-2097ij
Epitope ID:112868
EC 203-376-6
6-Octenal,3,7-dimethyl-
DSSTox_CID_21790
DSSTox_RID_79843
DSSTox_GSID_41790
SCHEMBL29275
3,7-dimethyloct-6-en-1-al
CHEMBL447944
GTPL6300
Jsp000566
DTXSID3041790
CTK4A4443
FEMA 2307
KS-00000W2N
EINECS 227-707-9
Tox21_301195
ANW-14009
c1026
NSC-46106
SBB068490
AKOS000121405
(+/-)-Citronellal, >=85%, FG
LS-2363
(+/-)-Citronellal, analytical standard
NCGC00248328-01
NCGC00255093-01
( inverted exclamation markA)-Citronellal
AN-19929
AN-22417
AS-54400
CAS-106-23-0
(+/-)-Citronellal, >=95.0% (GC)
DB-040680
TL8000227
TR-030705
FT-0623961
FT-0623963
C17384
(+/-)-Citronellal, natural, >=85%, FCC, FG
I14-7185
( inverted exclamation markA)-3,7-Dimethyl-6-octenal
I14-51328
InChI=1/C10H18O/c1-9(2)5-4-6-10(3)7-8-11/h5,8,10H,4,6-7H2,1-3H
Poly((1,3a,4,6,7,7a-hexahydro-1,3-dioxo-3H-furo(3,4-c)pyran-4,6-diyl)(tetrahydro-2,5-dioxo-3,4-furandiyl)methylene)
Poly((1,3a,4,6,7,7a-hexahydro-1,3-dioxo-3H-furo(3,4-c)pyran-4,6-diyl)(tetrahydro-2,5-dioxo-3,4-furandiyl)methylene) (9CI)
Poly[(1,4,6,7,7a-hexahydro-1,3-dioxo-3H-furo[3,4-c]pyran-4,6-diyl)(tetrahydro-2,5-dioxo-3,4-furandiyl)methylene]

> <TPSA>
17.1

> <TotalAidCount>
218

> <TotalFormalCharge>
0

> <XLogP>
3

> <database>
PubChem Compound

> <matchingCount>
176

> <primaryID>
7794

> <queryTranslation>
7628[CompoundID] OR 244[CompoundID] OR 25059[CompoundID] OR 7618[CompoundID] OR 7641[CompoundID] OR 5053[CompoundID] OR 637511[CompoundID] OR 7714[CompoundID] OR 7762[CompoundID] OR 25429[CompoundID]
OR 8842[CompoundID] OR 7794[CompoundID] OR 637566[CompoundID] OR 7843[CompoundID] OR 174[CompoundID] OR 7870[CompoundID] OR 86102[CompoundID] OR 7888[CompoundID] OR 7896[CompoundID] OR 1140[CompoundID
] OR 8042[CompoundID] OR 8058[CompoundID] OR 8078[CompoundID] OR 8087[CompoundID] OR 8117[CompoundID] OR 8133[CompoundID] OR 115224[CompoundID] OR 8175[CompoundID] OR 8194[CompoundID] OR 445639[Compou
ndID] OR 4944[CompoundID] OR 8294[CompoundID] OR 93541[CompoundID] OR 8360[CompoundID] OR 8363[CompoundID] OR 656612[CompoundID] OR 125098[CompoundID] OR 3352[CompoundID] OR 3303913[CompoundID] OR 648
05[CompoundID] OR 31200[CompoundID] OR 1712058[CompoundID] OR 31236[CompoundID] OR 31239[CompoundID] OR 31265[CompoundID] OR 31266[CompoundID] OR 31276[CompoundID] OR 6950273[CompoundID] OR 518659[Com
poundID] OR 14896[CompoundID] OR 14798[CompoundID] OR 14829[CompoundID] OR 14830[CompoundID] OR 8635[CompoundID] OR 23266[CompoundID] OR 4284[CompoundID] OR 8693[CompoundID] OR 22311[CompoundID] OR 87
59[CompoundID] OR 8785[CompoundID] OR 2723810[CompoundID] OR 8857[CompoundID] OR 3893[CompoundID] OR 9936739[CompoundID] OR 516892[CompoundID] OR 5430[CompoundID] OR 9017[CompoundID] OR 15433[Compound
ID] OR 107720[CompoundID] OR 9552081[CompoundID] OR 164825[CompoundID] OR 10275455[CompoundID] OR 16666[CompoundID] OR 9839306[CompoundID] OR 5282227[CompoundID] OR 23676745[CompoundID] OR 32881[Compo
undID] OR 91581[CompoundID] OR 39800[CompoundID] OR 33344[CompoundID] OR 15962220[CompoundID] OR 33528[CompoundID] OR 5365075[CompoundID] OR 62829[CompoundID] OR 162381[CompoundID] OR 517202[CompoundI
D] OR 6433353[CompoundID] OR 2730[CompoundID] OR 5372405[CompoundID] OR 36081[CompoundID] OR 3120[CompoundID] OR 3017[CompoundID] OR 2969[CompoundID] OR 18827[CompoundID] OR 19518[CompoundID] OR 19658
[CompoundID] OR 38283[CompoundID] OR 2758[CompoundID] OR 10112[CompoundID] OR 10340[CompoundID] OR 712[CompoundID] OR 5794[CompoundID] OR 3347[CompoundID] OR 104150[CompoundID] OR 2912[CompoundID] OR
2450[CompoundID] OR 40326[CompoundID] OR 40585[CompoundID] OR 517055[CompoundID] OR 10913[CompoundID] OR 108242[CompoundID] OR 62097[CompoundID] OR 41679[CompoundID] OR 54680676[CompoundID] OR 62118[C
ompoundID] OR 753[CompoundID] OR 1030[CompoundID] OR 23673837[CompoundID] OR 54678504[CompoundID] OR 11442[CompoundID] OR 11463[CompoundID] OR 22230[CompoundID] OR 440917[CompoundID] OR 6054[CompoundI
D] OR 43234[CompoundID] OR 22629[CompoundID] OR 3039[CompoundID] OR 2735067[CompoundID] OR 6144[CompoundID] OR 702[CompoundID] OR 284[CompoundID] OR 176[CompoundID] OR 91688[CompoundID] OR 22947[Compo
undID] OR 47445[CompoundID] OR 1711973[CompoundID] OR 243[CompoundID] OR 10342051[CompoundID] OR 5281875[CompoundID] OR 3776[CompoundID] OR 6224[CompoundID] OR 104926[CompoundID] OR 8755[CompoundID] O
R 338[CompoundID] OR 123622[CompoundID] OR 23954[CompoundID] OR 6334[CompoundID] OR 2537[CompoundID] OR 24261[CompoundID] OR 23665760[CompoundID] OR 83975[CompoundID] OR 784[CompoundID] OR 24437[Compo
undID] OR 5360315[CompoundID] OR 311[CompoundID] OR 6549[CompoundID] OR 107689[CompoundID] OR 17100[CompoundID] OR 24976875[CompoundID] OR 6654[CompoundID] OR 71245[CompoundID] OR 6442842[CompoundID]
OR 62334[CompoundID] OR 54698175[CompoundID] OR 6328154[CompoundID] OR 24762[CompoundID] OR 440950[CompoundID] OR 7017[CompoundID] OR 5281873[CompoundID] OR 323[CompoundID] OR 5281167[CompoundID] OR 7
175[CompoundID] OR 7292[CompoundID] OR 6335613[CompoundID] OR 7456[CompoundID] OR 7462[CompoundID]

> <resultIndex>
128

> <resultRange>
1-176

> <textQuery>
7628,244,25059,7618,7641,5053,637511,7714,7762,25429,8842,7794,637566,7843,174,7870,86102,7888,7896,1140,8042,8058,8078,8087,8117,8133,115224,8175,8194,445639,4944,8294,93541,8360,8363,656612,125098,3
352,3303913,64805,31200,1712058,31236,31239,31265,31266,31276,6950273,518659,14896,14798,14829,14830,8635,23266,4284,8693,22311,8759,8785,2723810,8857,3893,9936739,516892,5430,9017,15433,107720,955208
1,164825,10275455,16666,9839306,5282227,23676745,32881,91581,39800,33344,15962220,33528,5365075,62829,162381,517202,6433353,2730,5372405,36081,3120,3017,2969,18827,19518,19658,38283,2758,10112,10340,7
12,5794,3347,104150,2912,2450,40326,40585,517055,10913,108242,62097,41679,54680676,62118,753,1030,23673837,54678504,11442,11463,22230,440917,6054,43234,22629,3039,2735067,6144,702,284,176,91688,22947,
47445,1711973,243,10342051,5281875,3776,6224,104926,8755,338,123622,23954,6334,2537,24261,23665760,83975,784,24437,5360315,311,6549,107689,17100,24976875,6654,71245,6442842,62334,54698175,6328154,2476
2,440950,7017,5281873,323,5281167,7175,7292,6335613,7456,7462

$$$$
7,762
  SciTegic10191915303D

 20 19  0  0  0  0            999 V2000
    1.4080    0.3790   -3.0740 C   0  0
    0.9450   -0.2440   -1.7560 C   0  0
   -0.4400    0.2440   -1.3300 C   0  0
   -0.8950   -0.3810   -0.0370 C   0  0
   -1.6080   -1.3570   -0.0350 O   0  0
   -0.4570    0.2210    1.0660 O   0  0
   -0.9200   -0.4160    2.2480 C   0  0
   -0.3810    0.3260    3.4710 C   0  0
    2.4020    0.0180   -3.3420 H   0  0
    0.7150    0.1390   -3.8790 H   0  0
    1.4610    1.4650   -2.9900 H   0  0
    1.6760   -0.0660   -0.9690 H   0  0
    0.9690   -1.3320   -1.8150 H   0  0
   -1.1190   -0.0350   -2.1350 H   0  0
   -0.4550    1.3300   -1.2420 H   0  0
   -0.5720   -1.4490    2.2380 H   0  0
   -2.0100   -0.4000    2.2380 H   0  0
   -0.7130   -0.1310    4.4020 H   0  0
   -0.7130    1.3630    3.4710 H   0  0
    0.7090    0.3260    3.4710 H   0  0
  1  2  1  0
  2  3  1  0
  3  4  1  0
  4  5  2  0
  4  6  1  0
  6  7  1  0
  7  8  1  0
  1  9  1  0
  1 10  1  0
  1 11  1  0
  2 12  1  0
  2 13  1  0
  3 14  1  0
  3 15  1  0
  7 16  1  0
  7 17  1  0
  8 18  1  0
  8 19  1  0
  8 20  1  0
M  END
> <Name>
7,762

> <OBJECTID>
9223372578023997451

> <ActiveAidCount>
2

> <AtomChiralCount>
0

> <AtomChiralDefCount>
0

> <AtomChiralUndefCount>
0

> <BondChiralCount>
0

> <BondChiralDefCount>
0

> <BondChiralUndefCount>
0

> <CID>
7762

> <CanonicalSmiles>
CCCC(=O)OCC

> <Complexity>
68.9

> <CovalentUnitCount>
1

> <CreateDate>
2005/03/26 00:00

> <HeavyAtomCount>
8

> <HydrogenBondAcceptorCount>
2

> <HydrogenBondDonorCount>
0

> <IUPACName>
ethyl butanoate

> <InChI>
InChI=1S/C6H12O2/c1-3-5-6(7)8-4-2/h3-5H2,1-2H3

> <InChIKey>
OBNCKNCVKJNDBV-UHFFFAOYSA-N

> <IsomericSmiles>
CCCC(=O)OCC

> <IsotopeAtomCount>
0

> <MeSHHeading>
ethyl butyrate

> <MeSHTerm>
butyric acid ethyl ester
ethyl butyrate

> <MolecularFormula>
C6H12O2

> <MolecularWeight>
116.16

> <RotatableBondCount>
4

> <Smiles>
CCCC(OCC)=O

> <SourceCategory>
Chemical Vendors
Legacy Depositors
Research and Development
Curation Efforts
Governmental Organizations
NIH Initiatives
Subscription Services
Journal Publishers

> <Synonym>
ETHYL BUTYRATE
Ethyl butanoate
105-54-4
Butyric acid ethyl ester
Ethyl n-butyrate
Butanoic acid, ethyl ester
Butyric ester
Butyric ether
Butyric acid, ethyl ester
Ethyl n-butanoate
Butanoic acid ethyl ester
FEMA Number 2427
Ethyl butyrate (natural)
UNII-UFD2LZ005D
n-Butyric acid ethyl ester
Ethyl 1-butyrate
NSC 8857
Ethyl ester of butanoic acid
MFCD00009394
FEMA No. 2427
CCRIS 6554
HSDB 406
Ethyl butyrate, 99%
EINECS 203-306-4
UN1180
BRN 0506331
UFD2LZ005D
AI3-18427
CHEBI:88764
OBNCKNCVKJNDBV-UHFFFAOYSA-N
UN 1180
Butyric ethee
Butyric acid ethyl
ETHYLBUTYRATE
Nat. Ethyl Butyrate
Ethyl Butyrate Natural
Butyric acid ethyl estee
Butyric acid-ethyl ester
AC1L1PHR
Butanoic acid ethyl estee
Butanoicacid, ethyl ester
ACMC-2098gq
AC1Q2UI5
SCHEMBL6115
DSSTox_CID_20111
DSSTox_RID_79440
DSSTox_GSID_40111
4-02-00-00787 (Beilstein Handbook Reference)
KSC489Q2R
WLN: 3VO2
CHEMBL44800
Jsp000519
DTXSID6040111
CTK3I9828
FEMA 2427
KS-00000XEG
NSC8857
ZINC404390
Ethyl butyrate, analytical standard
NSC-8857
Tox21_300065
7520AF
ANW-15240
LMFA07010874
Ethyl butyrate, >=98%, FCC, FG
AKOS008948342
LS-2361
MCULE-9977024136
NE34239
RP19237
RTR-001152
TRA-0207104
NCGC00247893-01
NCGC00253968-01
AN-17343
CAS-105-54-4
CJ-04029
SC-26823
ZB013520
TR-001152
B0759
Ethyl butyrate, natural, >=98%, FCC, FG
FT-0623347
Ethyl butyrate [UN1180] [Flammable liquid]
Ethyl butyrate [UN1180] [Flammable liquid]
I14-2578
J-001444
F0001-0107
InChI=1/C6H12O2/c1-3-5-6(7)8-4-2/h3-5H2,1-2H

> <TPSA>
26.3

> <TotalAidCount>
213

> <TotalFormalCharge>
0

> <XLogP>
1.3

> <database>
PubChem Compound

> <matchingCount>
176

> <primaryID>
7762

> <queryTranslation>
7628[CompoundID] OR 244[CompoundID] OR 25059[CompoundID] OR 7618[CompoundID] OR 7641[CompoundID] OR 5053[CompoundID] OR 637511[CompoundID] OR 7714[CompoundID] OR 7762[CompoundID] OR 25429[CompoundID]
OR 8842[CompoundID] OR 7794[CompoundID] OR 637566[CompoundID] OR 7843[CompoundID] OR 174[CompoundID] OR 7870[CompoundID] OR 86102[CompoundID] OR 7888[CompoundID] OR 7896[CompoundID] OR 1140[CompoundID
] OR 8042[CompoundID] OR 8058[CompoundID] OR 8078[CompoundID] OR 8087[CompoundID] OR 8117[CompoundID] OR 8133[CompoundID] OR 115224[CompoundID] OR 8175[CompoundID] OR 8194[CompoundID] OR 445639[Compou
ndID] OR 4944[CompoundID] OR 8294[CompoundID] OR 93541[CompoundID] OR 8360[CompoundID] OR 8363[CompoundID] OR 656612[CompoundID] OR 125098[CompoundID] OR 3352[CompoundID] OR 3303913[CompoundID] OR 648
05[CompoundID] OR 31200[CompoundID] OR 1712058[CompoundID] OR 31236[CompoundID] OR 31239[CompoundID] OR 31265[CompoundID] OR 31266[CompoundID] OR 31276[CompoundID] OR 6950273[CompoundID] OR 518659[Com
poundID] OR 14896[CompoundID] OR 14798[CompoundID] OR 14829[CompoundID] OR 14830[CompoundID] OR 8635[CompoundID] OR 23266[CompoundID] OR 4284[CompoundID] OR 8693[CompoundID] OR 22311[CompoundID] OR 87
59[CompoundID] OR 8785[CompoundID] OR 2723810[CompoundID] OR 8857[CompoundID] OR 3893[CompoundID] OR 9936739[CompoundID] OR 516892[CompoundID] OR 5430[CompoundID] OR 9017[CompoundID] OR 15433[Compound
ID] OR 107720[CompoundID] OR 9552081[CompoundID] OR 164825[CompoundID] OR 10275455[CompoundID] OR 16666[CompoundID] OR 9839306[CompoundID] OR 5282227[CompoundID] OR 23676745[CompoundID] OR 32881[Compo
undID] OR 91581[CompoundID] OR 39800[CompoundID] OR 33344[CompoundID] OR 15962220[CompoundID] OR 33528[CompoundID] OR 5365075[CompoundID] OR 62829[CompoundID] OR 162381[CompoundID] OR 517202[CompoundI
D] OR 6433353[CompoundID] OR 2730[CompoundID] OR 5372405[CompoundID] OR 36081[CompoundID] OR 3120[CompoundID] OR 3017[CompoundID] OR 2969[CompoundID] OR 18827[CompoundID] OR 19518[CompoundID] OR 19658
[CompoundID] OR 38283[CompoundID] OR 2758[CompoundID] OR 10112[CompoundID] OR 10340[CompoundID] OR 712[CompoundID] OR 5794[CompoundID] OR 3347[CompoundID] OR 104150[CompoundID] OR 2912[CompoundID] OR
2450[CompoundID] OR 40326[CompoundID] OR 40585[CompoundID] OR 517055[CompoundID] OR 10913[CompoundID] OR 108242[CompoundID] OR 62097[CompoundID] OR 41679[CompoundID] OR 54680676[CompoundID] OR 62118[C
ompoundID] OR 753[CompoundID] OR 1030[CompoundID] OR 23673837[CompoundID] OR 54678504[CompoundID] OR 11442[CompoundID] OR 11463[CompoundID] OR 22230[CompoundID] OR 440917[CompoundID] OR 6054[CompoundI
D] OR 43234[CompoundID] OR 22629[CompoundID] OR 3039[CompoundID] OR 2735067[CompoundID] OR 6144[CompoundID] OR 702[CompoundID] OR 284[CompoundID] OR 176[CompoundID] OR 91688[CompoundID] OR 22947[Compo
undID] OR 47445[CompoundID] OR 1711973[CompoundID] OR 243[CompoundID] OR 10342051[CompoundID] OR 5281875[CompoundID] OR 3776[CompoundID] OR 6224[CompoundID] OR 104926[CompoundID] OR 8755[CompoundID] O
R 338[CompoundID] OR 123622[CompoundID] OR 23954[CompoundID] OR 6334[CompoundID] OR 2537[CompoundID] OR 24261[CompoundID] OR 23665760[CompoundID] OR 83975[CompoundID] OR 784[CompoundID] OR 24437[Compo
undID] OR 5360315[CompoundID] OR 311[CompoundID] OR 6549[CompoundID] OR 107689[CompoundID] OR 17100[CompoundID] OR 24976875[CompoundID] OR 6654[CompoundID] OR 71245[CompoundID] OR 6442842[CompoundID]
OR 62334[CompoundID] OR 54698175[CompoundID] OR 6328154[CompoundID] OR 24762[CompoundID] OR 440950[CompoundID] OR 7017[CompoundID] OR 5281873[CompoundID] OR 323[CompoundID] OR 5281167[CompoundID] OR 7
175[CompoundID] OR 7292[CompoundID] OR 6335613[CompoundID] OR 7456[CompoundID] OR 7462[CompoundID]

> <resultIndex>
129

> <resultRange>
1-176

> <textQuery>
7628,244,25059,7618,7641,5053,637511,7714,7762,25429,8842,7794,637566,7843,174,7870,86102,7888,7896,1140,8042,8058,8078,8087,8117,8133,115224,8175,8194,445639,4944,8294,93541,8360,8363,656612,125098,3
352,3303913,64805,31200,1712058,31236,31239,31265,31266,31276,6950273,518659,14896,14798,14829,14830,8635,23266,4284,8693,22311,8759,8785,2723810,8857,3893,9936739,516892,5430,9017,15433,107720,955208
1,164825,10275455,16666,9839306,5282227,23676745,32881,91581,39800,33344,15962220,33528,5365075,62829,162381,517202,6433353,2730,5372405,36081,3120,3017,2969,18827,19518,19658,38283,2758,10112,10340,7
12,5794,3347,104150,2912,2450,40326,40585,517055,10913,108242,62097,41679,54680676,62118,753,1030,23673837,54678504,11442,11463,22230,440917,6054,43234,22629,3039,2735067,6144,702,284,176,91688,22947,
47445,1711973,243,10342051,5281875,3776,6224,104926,8755,338,123622,23954,6334,2537,24261,23665760,83975,784,24437,5360315,311,6549,107689,17100,24976875,6654,71245,6442842,62334,54698175,6328154,2476
2,440950,7017,5281873,323,5281167,7175,7292,6335613,7456,7462

$$$$
7,714
  SciTegic10191915303D

 33 33  0  0  1  0            999 V2000
    5.2210   -2.0570    0.4220 O   0  0
    4.6120   -1.0140    0.4670 C   0  0
    3.2910   -0.9080    0.4020 O   0  0
    2.9650    0.4630    0.6250 C   0  0  3  0  0  0
    1.7130    0.8380   -0.1580 C   0  0
    0.5270    0.0210    0.3550 C   0  0
   -0.7770    0.3550   -0.3710 C   0  0
   -1.9630   -0.4610    0.1400 C   0  0
   -3.2680   -0.1270   -0.5840 C   0  0
   -4.4530   -0.9430   -0.0730 C   0  0
   -5.7580   -0.6110   -0.7990 C   0  0
    4.1940    1.2810    0.2070 C   0  0
    5.3030    0.3090    0.5920 C   0  0
    2.7890    0.5880    1.6850 H   0  0
    1.8610    0.6740   -1.2250 H   0  0
    1.5120    1.9060   -0.0730 H   0  0
    0.7380   -1.0450    0.2950 H   0  0
    0.4100    0.1460    1.4310 H   0  0
   -0.9880    1.4240   -0.3110 H   0  0
   -0.6600    0.2320   -1.4480 H   0  0
   -1.7500   -1.5290    0.0800 H   0  0
   -2.0800   -0.3380    1.2190 H   0  0
   -3.4780    0.9390   -0.5240 H   0  0
   -3.1500   -0.2500   -1.6620 H   0  0
   -4.2400   -2.0120   -0.1330 H   0  0
   -4.5700   -0.8200    1.0040 H   0  0
   -6.5780   -1.2170   -0.4160 H   0  0
   -6.0060    0.4430   -0.6780 H   0  0
   -5.6660   -0.8110   -1.8650 H   0  0
    4.2660    2.2320    0.7130 H   0  0
    4.1970    1.4530   -0.8600 H   0  0
    5.6290    0.4590    1.6110 H   0  0
    6.1560    0.3790   -0.0670 H   0  0
  1  2  2  0
  2  3  1  0
  2 13  1  0
  3  4  1  0
  4  5  1  0
  4 12  1  0
  5  6  1  0
  6  7  1  0
  7  8  1  0
  8  9  1  0
  9 10  1  0
 10 11  1  0
 12 13  1  0
  4 14  1  0
  5 15  1  0
  5 16  1  0
  6 17  1  0
  6 18  1  0
  7 19  1  0
  7 20  1  0
  8 21  1  0
  8 22  1  0
  9 23  1  0
  9 24  1  0
 10 25  1  0
 10 26  1  0
 11 27  1  0
 11 28  1  0
 11 29  1  0
 12 30  1  0
 12 31  1  0
 13 32  1  0
 13 33  1  0
M  END
> <Name>
7,714

> <OBJECTID>
9223372582318964747

> <ActiveAidCount>
2

> <AtomChiralCount>
1

> <AtomChiralDefCount>
0

> <AtomChiralUndefCount>
1

> <BondChiralCount>
0

> <BondChiralDefCount>
0

> <BondChiralUndefCount>
0

> <CID>
7714

> <CanonicalSmiles>
CCCCCCCC1CCC(=O)O1

> <Complexity>
154

> <CovalentUnitCount>
1

> <CreateDate>
2005/03/26 00:00

> <HeavyAtomCount>
13

> <HydrogenBondAcceptorCount>
2

> <HydrogenBondDonorCount>
0

> <IUPACName>
5-heptyloxolan-2-one

> <InChI>
InChI=1S/C11H20O2/c1-2-3-4-5-6-7-10-8-9-11(12)13-10/h10H,2-9H2,1H3

> <InChIKey>
PHXATPHONSXBIL-UHFFFAOYSA-N

> <IsomericSmiles>
CCCCCCCC1CCC(=O)O1

> <IsotopeAtomCount>
0

> <MolecularFormula>
C11H20O2

> <MolecularWeight>
184.27

> <RotatableBondCount>
6

> <Smiles>
O=C1CCC(CCCCCCC)O1

> <SourceCategory>
Legacy Depositors
Chemical Vendors
Research and Development
Curation Efforts
Governmental Organizations
NIH Initiatives
Subscription Services
Journal Publishers

> <Synonym>
Gamma-undecalactone
104-67-6
4-Undecanolide
5-Heptyldihydrofuran-2(3H)-one
Persicol
1,4-Undecanolide
Peach aldehyde
Peach lactone
2(3H)-Furanone, 5-heptyldihydro-
Undecan-4-olide
Aldehyde C-14 peach
gamma-Undecanolactone
Undecanoic gamma-lactone
4-Hydroxyundecanoic acid lactone
5-Heptyldihydro-2(3H)-furanone
gamma-Undecanolide
1,4-Hendecanolide
gamma-n-Heptylbutyrolactone
gamma-Undekalakton [Czech]
.gamma.-n-Heptylbutyrolactone
gamma-Undecalactone (natural)
NSC 406421
FEMA No. 3091
.gamma.-Undecalatone
.gamma.-Undecanolide
CCRIS 1425
gamma-Heptyl-gamma-butyrolactone
.gamma.-Undecalactone
xi-gamma-Undecalactone
5-heptyloxolan-2-one
.gamma.-Undecanolactone
EINECS 203-225-4
MFCD00005405
.gamma.-Heptylbutyrolactone
BRN 0081943
5-Heptyl-dihydro-furan-2-one
AI3-00751
CHEMBL195827
Undecanoic acid, 4-hydroxy-, gamma-lactone
CHEBI:89362
PHXATPHONSXBIL-UHFFFAOYSA-N
Dihydro-5-heptyl-2(3H)-furanone
.gamma.-Heptyl-.gamma.-butyrolactone
4-Hydroxyundecanoic acid, .gamma.-lactone
gamma-Undecalactone, 98%
WLN: T5OVTJ E7
Undecanoic acid, .gamma.-lactone
gamma-Undekalakton
57084-17-0
Undecanolide-1,4
.gamma.-Undekalakton
Undecanoic ?-lactone
AC1L1PDU
Undecanoic .gamma.-lactone
EC 203-225-4
DSSTox_CID_14287
DSSTox_RID_79139
DSSTox_GSID_34287
5-heptyltetrahydrofuran-2-one
SCHEMBL113498
Undecanoic gamma-lactone, 99%
Jsp000459
DTXSID4034287
PHXATPHONSXBIL-UHFFFAOYSA-
HMS1786B22
5-Heptyl-dihydrofuran-2(3H)-one
NSC46118
NSC76413
5-Heptyldihydro-2(3H)-furanone #
Tox21_300063
BDBM50168011
LMFA07040030
NSC-46118
NSC-76413
NSC406421
5-heptyl-3,4,5-trihydrofuran-2-one
AKOS001076126
LS-2358
MCULE-9018416843
NSC-406421
gamma-Undecalactone, analytical standard
gamma-Undecalactone, >=98%, FCC, FG
NCGC00164025-01
NCGC00164025-02
NCGC00254148-01
AK114195
AN-24690
CAS-104-67-6
M524
SY011229
AX8017400
TR-001023
FT-0626626
FT-0695781
ST24044763
ST50826887
U0003
MFCD00005405 (95%)
Undecanoic acid, 4-hydroxy-, .gamma.-lactone
gamma-UNDECALACTONE (ALDEHYDE C-14) FCC
gamma-Undecalactone, natural (US), >=98%, FG
J-001223
InChI=1/C11H20O2/c1-2-3-4-5-6-7-10-8-9-11(12)13-10/h10H,2-9H2,1H3

> <TPSA>
26.3

> <TotalAidCount>
254

> <TotalFormalCharge>
0

> <XLogP>
3.3

> <database>
PubChem Compound

> <matchingCount>
176

> <primaryID>
7714

> <queryTranslation>
7628[CompoundID] OR 244[CompoundID] OR 25059[CompoundID] OR 7618[CompoundID] OR 7641[CompoundID] OR 5053[CompoundID] OR 637511[CompoundID] OR 7714[CompoundID] OR 7762[CompoundID] OR 25429[CompoundID]
OR 8842[CompoundID] OR 7794[CompoundID] OR 637566[CompoundID] OR 7843[CompoundID] OR 174[CompoundID] OR 7870[CompoundID] OR 86102[CompoundID] OR 7888[CompoundID] OR 7896[CompoundID] OR 1140[CompoundID
] OR 8042[CompoundID] OR 8058[CompoundID] OR 8078[CompoundID] OR 8087[CompoundID] OR 8117[CompoundID] OR 8133[CompoundID] OR 115224[CompoundID] OR 8175[CompoundID] OR 8194[CompoundID] OR 445639[Compou
ndID] OR 4944[CompoundID] OR 8294[CompoundID] OR 93541[CompoundID] OR 8360[CompoundID] OR 8363[CompoundID] OR 656612[CompoundID] OR 125098[CompoundID] OR 3352[CompoundID] OR 3303913[CompoundID] OR 648
05[CompoundID] OR 31200[CompoundID] OR 1712058[CompoundID] OR 31236[CompoundID] OR 31239[CompoundID] OR 31265[CompoundID] OR 31266[CompoundID] OR 31276[CompoundID] OR 6950273[CompoundID] OR 518659[Com
poundID] OR 14896[CompoundID] OR 14798[CompoundID] OR 14829[CompoundID] OR 14830[CompoundID] OR 8635[CompoundID] OR 23266[CompoundID] OR 4284[CompoundID] OR 8693[CompoundID] OR 22311[CompoundID] OR 87
59[CompoundID] OR 8785[CompoundID] OR 2723810[CompoundID] OR 8857[CompoundID] OR 3893[CompoundID] OR 9936739[CompoundID] OR 516892[CompoundID] OR 5430[CompoundID] OR 9017[CompoundID] OR 15433[Compound
ID] OR 107720[CompoundID] OR 9552081[CompoundID] OR 164825[CompoundID] OR 10275455[CompoundID] OR 16666[CompoundID] OR 9839306[CompoundID] OR 5282227[CompoundID] OR 23676745[CompoundID] OR 32881[Compo
undID] OR 91581[CompoundID] OR 39800[CompoundID] OR 33344[CompoundID] OR 15962220[CompoundID] OR 33528[CompoundID] OR 5365075[CompoundID] OR 62829[CompoundID] OR 162381[CompoundID] OR 517202[CompoundI
D] OR 6433353[CompoundID] OR 2730[CompoundID] OR 5372405[CompoundID] OR 36081[CompoundID] OR 3120[CompoundID] OR 3017[CompoundID] OR 2969[CompoundID] OR 18827[CompoundID] OR 19518[CompoundID] OR 19658
[CompoundID] OR 38283[CompoundID] OR 2758[CompoundID] OR 10112[CompoundID] OR 10340[CompoundID] OR 712[CompoundID] OR 5794[CompoundID] OR 3347[CompoundID] OR 104150[CompoundID] OR 2912[CompoundID] OR
2450[CompoundID] OR 40326[CompoundID] OR 40585[CompoundID] OR 517055[CompoundID] OR 10913[CompoundID] OR 108242[CompoundID] OR 62097[CompoundID] OR 41679[CompoundID] OR 54680676[CompoundID] OR 62118[C
ompoundID] OR 753[CompoundID] OR 1030[CompoundID] OR 23673837[CompoundID] OR 54678504[CompoundID] OR 11442[CompoundID] OR 11463[CompoundID] OR 22230[CompoundID] OR 440917[CompoundID] OR 6054[CompoundI
D] OR 43234[CompoundID] OR 22629[CompoundID] OR 3039[CompoundID] OR 2735067[CompoundID] OR 6144[CompoundID] OR 702[CompoundID] OR 284[CompoundID] OR 176[CompoundID] OR 91688[CompoundID] OR 22947[Compo
undID] OR 47445[CompoundID] OR 1711973[CompoundID] OR 243[CompoundID] OR 10342051[CompoundID] OR 5281875[CompoundID] OR 3776[CompoundID] OR 6224[CompoundID] OR 104926[CompoundID] OR 8755[CompoundID] O
R 338[CompoundID] OR 123622[CompoundID] OR 23954[CompoundID] OR 6334[CompoundID] OR 2537[CompoundID] OR 24261[CompoundID] OR 23665760[CompoundID] OR 83975[CompoundID] OR 784[CompoundID] OR 24437[Compo
undID] OR 5360315[CompoundID] OR 311[CompoundID] OR 6549[CompoundID] OR 107689[CompoundID] OR 17100[CompoundID] OR 24976875[CompoundID] OR 6654[CompoundID] OR 71245[CompoundID] OR 6442842[CompoundID]
OR 62334[CompoundID] OR 54698175[CompoundID] OR 6328154[CompoundID] OR 24762[CompoundID] OR 440950[CompoundID] OR 7017[CompoundID] OR 5281873[CompoundID] OR 323[CompoundID] OR 5281167[CompoundID] OR 7
175[CompoundID] OR 7292[CompoundID] OR 6335613[CompoundID] OR 7456[CompoundID] OR 7462[CompoundID]

> <resultIndex>
130

> <resultRange>
1-176

> <textQuery>
7628,244,25059,7618,7641,5053,637511,7714,7762,25429,8842,7794,637566,7843,174,7870,86102,7888,7896,1140,8042,8058,8078,8087,8117,8133,115224,8175,8194,445639,4944,8294,93541,8360,8363,656612,125098,3
352,3303913,64805,31200,1712058,31236,31239,31265,31266,31276,6950273,518659,14896,14798,14829,14830,8635,23266,4284,8693,22311,8759,8785,2723810,8857,3893,9936739,516892,5430,9017,15433,107720,955208
1,164825,10275455,16666,9839306,5282227,23676745,32881,91581,39800,33344,15962220,33528,5365075,62829,162381,517202,6433353,2730,5372405,36081,3120,3017,2969,18827,19518,19658,38283,2758,10112,10340,7
12,5794,3347,104150,2912,2450,40326,40585,517055,10913,108242,62097,41679,54680676,62118,753,1030,23673837,54678504,11442,11463,22230,440917,6054,43234,22629,3039,2735067,6144,702,284,176,91688,22947,
47445,1711973,243,10342051,5281875,3776,6224,104926,8755,338,123622,23954,6334,2537,24261,23665760,83975,784,24437,5360315,311,6549,107689,17100,24976875,6654,71245,6442842,62334,54698175,6328154,2476
2,440950,7017,5281873,323,5281167,7175,7292,6335613,7456,7462

$$$$
7,641
  SciTegic10191915303D

 68 67  0  0  1  0            999 V2000
    0.3950   -4.0450    1.7340 O   0  0
    0.6620    3.4790   -2.4530 O   0  0
   -1.1370   -2.4120    1.8570 O   0  0
    2.1190    1.7930   -2.6820 O   0  0
    0.2250   -6.0780    3.0120 C   0  0  3  0  0  0
    0.8910    5.5590   -3.6470 C   0  0  3  0  0  0
   -0.1090   -2.8570    1.4040 C   0  0
    1.1210    2.2600   -2.1860 C   0  0
   -0.4120   -4.7290    2.6800 C   0  0
    1.4790    4.1700   -3.3870 C   0  0
    0.6990   -2.0760    0.4020 C   0  0
    0.3030    1.4690   -1.2010 C   0  0
    0.0920   -0.7050    0.1070 C   0  0
    0.9120    0.1000   -0.9020 C   0  0
   -0.2850   -6.6640    4.3280 C   0  0
   -0.5450    5.5040   -4.1660 C   0  0
    0.1410   -7.0720    1.8520 C   0  0
    1.8010    6.4320   -4.5140 C   0  0
    0.2580   -5.9240    5.5530 C   0  0
   -1.4690    6.4920   -3.4510 C   0  0
    0.9240   -6.6110    0.6230 C   0  0
    1.3220    7.8810   -4.5960 C   0  0
   -0.1990   -6.5510    6.8710 C   0  0
   -2.8790    6.5140   -4.0430 C   0  0
    0.3420   -5.8090    8.0940 C   0  0
   -3.8030    7.5000   -3.3260 C   0  0
    1.2420   -5.7030    3.1250 H   0  0
    0.6580    6.0610   -2.7070 H   0  0
   -1.4040   -4.8670    2.2480 H   0  0
   -0.4900   -4.1090    3.5740 H   0  0
    2.4820    4.2480   -2.9710 H   0  0
    1.5120    3.5880   -4.3090 H   0  0
    1.6950   -1.8850    0.7990 H   0  0
    0.8110   -2.6540   -0.5160 H   0  0
    0.2600    1.9940   -0.2480 H   0  0
   -0.7190    1.3630   -1.5680 H   0  0
   -0.9410   -0.8050   -0.2300 H   0  0
   -0.0490   -0.1390    1.0270 H   0  0
    1.9430    0.2030   -0.5640 H   0  0
    1.0550   -0.4690   -1.8220 H   0  0
   -0.0570   -7.7290    4.3910 H   0  0
   -1.3730   -6.6880    4.3440 H   0  0
   -0.5720    5.6640   -5.2440 H   0  0
   -0.9410    4.4900   -4.1020 H   0  0
   -0.8980   -7.2750    1.5940 H   0  0
    0.4670   -8.0630    2.1700 H   0  0
    1.9080    6.0040   -5.5100 H   0  0
    2.8300    6.3850   -4.1600 H   0  0
   -0.0100   -4.8690    5.5140 H   0  0
    1.3460   -5.8590    5.5140 H   0  0
   -1.5020    6.2830   -2.3830 H   0  0
   -1.0350    7.4920   -3.4490 H   0  0
    1.0310   -7.4100   -0.1110 H   0  0
    1.9220   -6.2790    0.9040 H   0  0
    0.4200   -5.7770    0.1350 H   0  0
    2.0350    8.5140   -5.1250 H   0  0
    1.1840    8.2990   -3.5980 H   0  0
    0.3690    7.9440   -5.1190 H   0  0
    0.0700   -7.6050    6.9100 H   0  0
   -1.2850   -6.6170    6.9100 H   0  0
   -2.8460    6.7250   -5.1110 H   0  0
   -3.3110    5.5140   -4.0470 H   0  0
    0.0080   -6.2660    9.0260 H   0  0
    0.0080   -4.7710    8.0940 H   0  0
    1.4320   -5.8090    8.0940 H   0  0
   -4.7950    7.4960   -3.7790 H   0  0
   -3.8930    7.2460   -2.2700 H   0  0
   -3.4100    8.5140   -3.3930 H   0  0
  1  7  1  0
  1  9  1  0
  2  8  1  0
  2 10  1  0
  3  7  2  0
  4  8  2  0
  5  9  1  0
  5 15  1  0
  5 17  1  0
  6 10  1  0
  6 16  1  0
  6 18  1  0
  7 11  1  0
  8 12  1  0
 11 13  1  0
 12 14  1  0
 13 14  1  0
 15 19  1  0
 16 20  1  0
 17 21  1  0
 18 22  1  0
 19 23  1  0
 20 24  1  0
 23 25  1  0
 24 26  1  0
  5 27  1  0
  6 28  1  0
  9 29  1  0
  9 30  1  0
 10 31  1  0
 10 32  1  0
 11 33  1  0
 11 34  1  0
 12 35  1  0
 12 36  1  0
 13 37  1  0
 13 38  1  0
 14 39  1  0
 14 40  1  0
 15 41  1  0
 15 42  1  0
 16 43  1  0
 16 44  1  0
 17 45  1  0
 17 46  1  0
 18 47  1  0
 18 48  1  0
 19 49  1  0
 19 50  1  0
 20 51  1  0
 20 52  1  0
 21 53  1  0
 21 54  1  0
 21 55  1  0
 22 56  1  0
 22 57  1  0
 22 58  1  0
 23 59  1  0
 23 60  1  0
 24 61  1  0
 24 62  1  0
 25 63  1  0
 25 64  1  0
 25 65  1  0
 26 66  1  0
 26 67  1  0
 26 68  1  0
M  END
> <Name>
7,641

> <OBJECTID>
9223372586613932043

> <ActiveAidCount>
12

> <AtomChiralCount>
2

> <AtomChiralDefCount>
0

> <AtomChiralUndefCount>
2

> <BondChiralCount>
0

> <BondChiralDefCount>
0

> <BondChiralUndefCount>
0

> <CID>
7641

> <CanonicalSmiles>
CCCCC(CC)COC(=O)CCCCC(=O)OCC(CC)CCCC

> <Complexity>
320

> <CovalentUnitCount>
1

> <CreateDate>
2005/03/26 00:00

> <HeavyAtomCount>
26

> <HydrogenBondAcceptorCount>
4

> <HydrogenBondDonorCount>
0

> <IUPACName>
bis(2-ethylhexyl) hexanedioate

> <InChI>
InChI=1S/C22H42O4/c1-5-9-13-19(7-3)17-25-21(23)15-11-12-16-22(24)26-18-20(8-4)14-10-6-2/h19-20H,5-18H2,1-4H3

> <InChIKey>
SAOKZLXYCUGLFA-UHFFFAOYSA-N

> <IsomericSmiles>
CCCCC(CC)COC(=O)CCCCC(=O)OCC(CC)CCCC

> <IsotopeAtomCount>
0

> <MeSHHeading>
dioctyl adipate

> <MeSHTerm>
dioctyl adipate
diethylhexyladipate
DEHA compound
adipic acid, dioctyl ester
di-2-ethyl-hexyl adipate
DEHA
diethylhexyl adipate

> <MolecularFormula>
C22H42O4

> <MolecularWeight>
370.6

> <RotatableBondCount>
19

> <Smiles>
O(CC(CC)CCCC)C(CCCCC(=O)OCC(CC)CCCC)=O

> <SourceCategory>
Chemical Vendors
Legacy Depositors
Research and Development
Curation Efforts
Governmental Organizations
NIH Initiatives
Subscription Services
Journal Publishers

> <Synonym>
BIS(2-ETHYLHEXYL) ADIPATE
103-23-1
Di(2-ethylhexyl) adipate
Diethylhexyl adipate
DEHA
Di(2-ethylhexyl)adipate
Plastomoll DOA
BEHA
Vestinol OA
Bisoflex DOA
Effomoll DOA
Kodaflex DOA
Monoplex DOA
Truflex DOA
Adipol 2EH
Bis(2-ethylhexyl) hexanedioate
Staflex doa
Uniflex doa
Di-2-ethylhexyl adipate
Reomol doa
Wickenol 158
Lankroflex DOA
Sansocizer DOA
Plasthall DOA
Crodamol DOA
Ergoplast ADDO
Flexol A 26
Mollan S
Sicol 250
Rucoflex plasticizer doa
Hexanedioic acid, bis(2-ethylhexyl) ester
Jayflex DOA 2
Kemester 5652
Effomoll DA
WITAMOL 320
Arlamol DOA
Hatcol 2908
ADO (lubricating oil)
Bis(2-ethylhexyl)hexanedioate
Flexol plasticizer 10-A
Flexol plasticizer A-26
Morflex 310
Vistone A 10
Adipic acid, bis(2-ethylhexyl) ester
Di-(2-ethylhexyl) adipate
Octyl adipate (VAN)
Dioctyl adipate (VAN)
BIS(2-ETHYLHEXYL)ADIPATE
NCI-C54386
Hexanedioic acid bis(2-ethylhexyl) ester
Effemoll doa
Palatinol DOA
Polycizer DOA
Monsanto DOA
UNII-MBY1SL921L
Adipic acid di(2-ethylhexyl) ester
DOA
PX-238
CCRIS 236
HSDB 343
Bis-(2-ethylhexyl)ester kyseliny adipove
keme ster 5652
Good-rite GP-223
USS 700
ADIPIC ACID BIS(2-ETHYLHEXYL) ESTER
Adipic acid di[2-ethylhexyl]ester
EINECS 203-090-1
Hexanedioic acid, 1,6-bis(2-ethylhexyl) ester
K 3220
NSC 56775
BRN 1803774
MBY1SL921L
AI3-28579
MLS002152897
Bis(2-ethylhexyl) hexanedio ate
CHEBI:34675
SAOKZLXYCUGLFA-UHFFFAOYSA-N
Bis(2-ethylhexyl) adipate, 99%
Bis-(2-ethylhexyl)ester kyseliny adipove [Czech]
1,6-bis(2-ethylhexyl) hexanedioate
MFCD00009496
Adipic acid bis (2-ethylhexyl) ester
AK133062
SMR001224508
DSSTox_CID_606
DSSTox_RID_75687
DSSTox_GSID_20606
Adipic acid di(2-ethylhexyl)ester
CAS-103-23-1
Bis-(2-ethylhexyl)ester kyseliny adipove (czech)
DOA Plasticizer
Jayflex DOA
Merrol DOA
Witcizer 412
Flexol A26
i-2-ethylhexyl adipate
ACMC-1C1QT
Adipic Acid Dioctyl Ester
EC 203-090-1
cid_7641
NCIOpen2_007625
SCHEMBL27423
Hexadioic acid, dioctyl ester
KSC489Q4H
Hexanedioc acid, dioctyl ester
Adipic acid bis(2-ethylhexyl)
AC1L1P81
Jsp000336
CHEMBL1414950
DTXSID0020606
BDBM74247
CTK3I9843
KS-00000YQM
NSC56775
Tox21_202231
Tox21_300564
Adipic acid, bis-2-ethylhexyl ester
Adipic acid, di(2-ethylhexyl) ester
ANW-14819
LS-360
NSC-56775
Bis(2-ethylhexyl) adipate, >=99%
AKOS015903805
ANGC-103-23-1
DS-7125
RL00151
RTR-000733
TRA0033710
NCGC00091185-01
NCGC00091185-02
NCGC00091185-03
NCGC00091185-04
NCGC00254473-01
NCGC00259780-01
AC-15178
CC-24703
O960
TR-000733
A0163
FT-0621915
ST24046162
WLN: 4Y2 & 1OV4VO1Y4 & 2
Bis(2-ethylhexyl) adipate, >=97.0% (GC)
Bis(2-ethylhexyl) adipate, analytical standard
C14240
C-21134
J-000910
J-519866
I14-17783
Bis(2-ethylhexyl) adipate, Selectophore(TM), >=99.0%
UNII-M7PN9GX4OJ component SAOKZLXYCUGLFA-UHFFFAOYSA-N
Adipic acid, bis-2-ethylhexyl ester 100 microg/mL in Acetone
70147-21-6
InChI=1/C22H42O4/c1-5-9-13-19(7-3)17-25-21(23)15-11-12-16-22(24)26-18-20(8-4)14-10-6-2/h19-20H,5-18H2,1-4H

> <TPSA>
52.6

> <TotalAidCount>
756

> <TotalFormalCharge>
0

> <XLogP>
6.8

> <database>
PubChem Compound

> <matchingCount>
176

> <primaryID>
7641

> <queryTranslation>
7628[CompoundID] OR 244[CompoundID] OR 25059[CompoundID] OR 7618[CompoundID] OR 7641[CompoundID] OR 5053[CompoundID] OR 637511[CompoundID] OR 7714[CompoundID] OR 7762[CompoundID] OR 25429[CompoundID]
OR 8842[CompoundID] OR 7794[CompoundID] OR 637566[CompoundID] OR 7843[CompoundID] OR 174[CompoundID] OR 7870[CompoundID] OR 86102[CompoundID] OR 7888[CompoundID] OR 7896[CompoundID] OR 1140[CompoundID
] OR 8042[CompoundID] OR 8058[CompoundID] OR 8078[CompoundID] OR 8087[CompoundID] OR 8117[CompoundID] OR 8133[CompoundID] OR 115224[CompoundID] OR 8175[CompoundID] OR 8194[CompoundID] OR 445639[Compou
ndID] OR 4944[CompoundID] OR 8294[CompoundID] OR 93541[CompoundID] OR 8360[CompoundID] OR 8363[CompoundID] OR 656612[CompoundID] OR 125098[CompoundID] OR 3352[CompoundID] OR 3303913[CompoundID] OR 648
05[CompoundID] OR 31200[CompoundID] OR 1712058[CompoundID] OR 31236[CompoundID] OR 31239[CompoundID] OR 31265[CompoundID] OR 31266[CompoundID] OR 31276[CompoundID] OR 6950273[CompoundID] OR 518659[Com
poundID] OR 14896[CompoundID] OR 14798[CompoundID] OR 14829[CompoundID] OR 14830[CompoundID] OR 8635[CompoundID] OR 23266[CompoundID] OR 4284[CompoundID] OR 8693[CompoundID] OR 22311[CompoundID] OR 87
59[CompoundID] OR 8785[CompoundID] OR 2723810[CompoundID] OR 8857[CompoundID] OR 3893[CompoundID] OR 9936739[CompoundID] OR 516892[CompoundID] OR 5430[CompoundID] OR 9017[CompoundID] OR 15433[Compound
ID] OR 107720[CompoundID] OR 9552081[CompoundID] OR 164825[CompoundID] OR 10275455[CompoundID] OR 16666[CompoundID] OR 9839306[CompoundID] OR 5282227[CompoundID] OR 23676745[CompoundID] OR 32881[Compo
undID] OR 91581[CompoundID] OR 39800[CompoundID] OR 33344[CompoundID] OR 15962220[CompoundID] OR 33528[CompoundID] OR 5365075[CompoundID] OR 62829[CompoundID] OR 162381[CompoundID] OR 517202[CompoundI
D] OR 6433353[CompoundID] OR 2730[CompoundID] OR 5372405[CompoundID] OR 36081[CompoundID] OR 3120[CompoundID] OR 3017[CompoundID] OR 2969[CompoundID] OR 18827[CompoundID] OR 19518[CompoundID] OR 19658
[CompoundID] OR 38283[CompoundID] OR 2758[CompoundID] OR 10112[CompoundID] OR 10340[CompoundID] OR 712[CompoundID] OR 5794[CompoundID] OR 3347[CompoundID] OR 104150[CompoundID] OR 2912[CompoundID] OR
2450[CompoundID] OR 40326[CompoundID] OR 40585[CompoundID] OR 517055[CompoundID] OR 10913[CompoundID] OR 108242[CompoundID] OR 62097[CompoundID] OR 41679[CompoundID] OR 54680676[CompoundID] OR 62118[C
ompoundID] OR 753[CompoundID] OR 1030[CompoundID] OR 23673837[CompoundID] OR 54678504[CompoundID] OR 11442[CompoundID] OR 11463[CompoundID] OR 22230[CompoundID] OR 440917[CompoundID] OR 6054[CompoundI
D] OR 43234[CompoundID] OR 22629[CompoundID] OR 3039[CompoundID] OR 2735067[CompoundID] OR 6144[CompoundID] OR 702[CompoundID] OR 284[CompoundID] OR 176[CompoundID] OR 91688[CompoundID] OR 22947[Compo
undID] OR 47445[CompoundID] OR 1711973[CompoundID] OR 243[CompoundID] OR 10342051[CompoundID] OR 5281875[CompoundID] OR 3776[CompoundID] OR 6224[CompoundID] OR 104926[CompoundID] OR 8755[CompoundID] O
R 338[CompoundID] OR 123622[CompoundID] OR 23954[CompoundID] OR 6334[CompoundID] OR 2537[CompoundID] OR 24261[CompoundID] OR 23665760[CompoundID] OR 83975[CompoundID] OR 784[CompoundID] OR 24437[Compo
undID] OR 5360315[CompoundID] OR 311[CompoundID] OR 6549[CompoundID] OR 107689[CompoundID] OR 17100[CompoundID] OR 24976875[CompoundID] OR 6654[CompoundID] OR 71245[CompoundID] OR 6442842[CompoundID]
OR 62334[CompoundID] OR 54698175[CompoundID] OR 6328154[CompoundID] OR 24762[CompoundID] OR 440950[CompoundID] OR 7017[CompoundID] OR 5281873[CompoundID] OR 323[CompoundID] OR 5281167[CompoundID] OR 7
175[CompoundID] OR 7292[CompoundID] OR 6335613[CompoundID] OR 7456[CompoundID] OR 7462[CompoundID]

> <resultIndex>
131

> <resultRange>
1-176

> <textQuery>
7628,244,25059,7618,7641,5053,637511,7714,7762,25429,8842,7794,637566,7843,174,7870,86102,7888,7896,1140,8042,8058,8078,8087,8117,8133,115224,8175,8194,445639,4944,8294,93541,8360,8363,656612,125098,3
352,3303913,64805,31200,1712058,31236,31239,31265,31266,31276,6950273,518659,14896,14798,14829,14830,8635,23266,4284,8693,22311,8759,8785,2723810,8857,3893,9936739,516892,5430,9017,15433,107720,955208
1,164825,10275455,16666,9839306,5282227,23676745,32881,91581,39800,33344,15962220,33528,5365075,62829,162381,517202,6433353,2730,5372405,36081,3120,3017,2969,18827,19518,19658,38283,2758,10112,10340,7
12,5794,3347,104150,2912,2450,40326,40585,517055,10913,108242,62097,41679,54680676,62118,753,1030,23673837,54678504,11442,11463,22230,440917,6054,43234,22629,3039,2735067,6144,702,284,176,91688,22947,
47445,1711973,243,10342051,5281875,3776,6224,104926,8755,338,123622,23954,6334,2537,24261,23665760,83975,784,24437,5360315,311,6549,107689,17100,24976875,6654,71245,6442842,62334,54698175,6328154,2476
2,440950,7017,5281873,323,5281167,7175,7292,6335613,7456,7462

$$$$
7,628
  SciTegic10191915303D

  7  6  0  0  0  0            999 V2000
    0.4430   -1.4800   -0.0160 O   0  0
   -0.0740   -0.2230   -0.0160 B   0  0
   -1.2440    0.0720   -0.6450 O   0  0
    0.6430    0.7250    0.6460 O   0  0
    1.4140   -1.4800   -0.0160 H   0  0
   -1.7320    0.7830   -0.2010 H   0  0
    0.5510    1.6040    0.2480 H   0  0
  1  2  1  0
  2  3  1  0
  2  4  1  0
  1  5  1  0
  3  6  1  0
  4  7  1  0
M  END
> <Name>
7,628

> <OBJECTID>
9223372590908899339

> <ActiveAidCount>
4

> <AtomChiralCount>
0

> <AtomChiralDefCount>
0

> <AtomChiralUndefCount>
0

> <BondChiralCount>
0

> <BondChiralDefCount>
0

> <BondChiralUndefCount>
0

> <CID>
7628

> <CanonicalSmiles>
B(O)(O)O

> <Complexity>
8

> <CovalentUnitCount>
1

> <CreateDate>
2004/09/16 00:00

> <HeavyAtomCount>
4

> <HydrogenBondAcceptorCount>
3

> <HydrogenBondDonorCount>
3

> <IUPACName>
boric acid

> <InChI>
InChI=1S/BH3O3/c2-1(3)4/h2-4H

> <InChIKey>
KGBXLFKZBHKPEV-UHFFFAOYSA-N

> <IsomericSmiles>
B(O)(O)O

> <IsotopeAtomCount>
0

> <MeSHHeading>
boric acid

> <MeSHTerm>
boron oxide hydroxide
boric acid
orthoboric acid

> <MolecularFormula>
BH3O3

> <MolecularWeight>
61.84

> <PharmAction>
Insecticides
Pesticides
Specialty Uses of Chemicals
Agrochemicals
Toxic Actions
Chemical Actions and Uses

> <RotatableBondCount>
0

> <Smiles>
OB(O)O

> <SourceCategory>
Chemical Vendors
Legacy Depositors
Research and Development
Curation Efforts
Governmental Organizations
NIH Initiatives
Subscription Services
Journal Publishers

> <Synonym>
BORIC ACID
Orthoboric acid
Boracic acid
10043-35-3
Borofax
Boron hydroxide
Boron trihydroxide
Three Elephant
Boric acid (H3BO3)
Basilit B
Trihydroxyborone
Flea Prufe
Super Flea Eliminator
Orthoboric acid (B(OH)3)
Orthoborsaeure
Boric acid (BH3O3)
Borsaeure
Borsaure
Trihydroxyborane
Acidum boricum
11113-50-1
Dr.'s 1 Flea Terminator DT
Boric acid (VAN)
Bluboro
Optibor
component of Aci-Jel
Dr.'s 1 Flea Terminator DFPBO
Orthboric Acid
Dr.'s 1 Flea Terminator DF
Borsaure [German]
Collyrium Eye Wash
Dr.'s 1 Flea Terminator DTPBO
NCI-C56417
Caswell No. 109
MFCD00011337
B(OH)3
trihydroxidoboron
Kjel-sorb
Ant flip
Homberg's salt
Kill-off
Boric acid [USAN:JAN]
UNII-R57ZHV85D4
hydrogen orthoborate
NSC 81726
Boric acid (TN)
CCRIS 855
HSDB 1432
(10B)Orthoboric acid
BORIC ACID, ACS
EINECS 233-139-2
EPA Pesticide Chemical Code 011001
Orthoboric acid (H3BO3)
Boracic acid, Orthoboric acid
AI3-02406
Boric acid (H310BO3)
R57ZHV85D4
CHEBI:33118
KGBXLFKZBHKPEV-UHFFFAOYSA-N
[B(OH)3]
NCGC00090745-02
DSSTox_CID_194
Kjel-Sorb&trade; Solution
DSSTox_RID_75425
DSSTox_GSID_20194
Boric acid, 99+%, extra pure
Boron, Reference Standard Solution
Boric acid, 99.5%, for analysis
ortho-boric acid
BO3
Boric acid, crude natural, containing not more than 85 per cent ofH3BO3 calculated on the dry weight
Niban Granular Bait
CAS-10043-35-3
Boric acid [JAN:NF]
Boric acid, 99.99%, (trace metal basis), extra pure
Boricacid
Sassolite
Orthoborc acd
Boric acid, 99.5%, for molecular biology, DNAse, RNAse and Protease free
Boric acid flakes
Boric Acid, Powder
Bluboro (Salt/Mix)
Boric Acid, Granular
Boric acid ACS grade
PubChem10918
ACMC-1BSON
WLN: QBQQ
Boric acid, ACS reagent
Heptaoxotetra-Borate(2-)
bmse000941
Boric acid (JP15/NF)
Boric acid (JP17/NF)
Acidum boricum (Salt/Mix)
Boric acid, Puratronic(R)
EC 233-139-2
H3BO3
KSC177G8D
BIDD:ER0252
CHEMBL42403
AC1L1P71
Collyrium Eye Wash (Salt/Mix)
DTXSID1020194
BDBM39817
CTK0H7381
KGBXLFKZBHKPEV-UHFFFAOYSA-
KS-00000URW
Boric acid, BioXtra, >=99.5%
NSC81726
Boric acid, 99.6%, ACS reagent
EINECS 237-478-7
Tox21_111004
Tox21_202185
Tox21_301000
1332-77-0 (di-potassium salt)
BC-140
LS-321
NSC-81726
STL445672
AKOS015833571
ZINC245189278
Boric acid, ACS reagent, >=99.5%
DB11326
LS41322
RL00039
RTR-000169
TRA0007941
Boric acid, 99.97% trace metals basis
Boric acid, USP, 99.5-100.5%
NCGC00090745-01
NCGC00090745-03
NCGC00090745-04
NCGC00090745-05
NCGC00254902-01
NCGC00259734-01
BC001419
Boric acid, ReagentPlus(R), >=99.5%
BP-13473
LS-45173
SC-65217
SC-97816
Boric acid, 99.999% trace metals basis
Boric acid, SAJ first grade, >=99.5%
AB1002298
Boric acid, for electrophoresis, >=99.5%
Boric acid, JIS special grade, >=99.5%
TR-000169
B7305
Boric acid, Vetec(TM) reagent grade, 98%
FT-0623166
FT-0623167
InChI=1/BH3O3/c2-1(3)4/h2-4H
Boric acid, tablet, 1 g boric acid per tablet
C12486
D01089
A800201
J-000132
J-523836
I14-17611
I14-19610
Boric acid, >=99.5%, suitable for amino acid analysis
Boric acid, NIST(R) SRM(R) 951a, isotopic standard
Boric acid, NIST(R) SRM(R) 973, acidimetric standard
Boric acid, BioUltra, for molecular biology, >=99.5% (T)
Boric acid, United States Pharmacopeia (USP) Reference Standard
Boric acid, cell culture tested, plant cell culture tested, >=99.5%
Boric acid, Biotechnology Performance Certified, >=99.5% (titration), Cell Culture Tested
Boric acid, p.a., ACS reagent, reag. ISO, reag. Ph. Eur., 99.5-100.5%
Boron standard solution, 1 mg/mL B, suitable for atomic absorption spectrometry, 1000 ppm B
Boric acid, BioReagent, for molecular biology, suitable for cell culture, suitable for plant cell culture, >=99.5%
Boric acid, puriss. p.a., ACS reagent, reag. ISO, reag. Ph. Eur., buffer substance, >=99.8%
Boric acid, puriss., meets analytical specification of Ph. Eur., BP, NF, 99.5-100.5%, powder
Buffer solution, pH 11.00 (+/-0.01 at 25 degrees C), No Color, Specpure(R), NIST Traceable

> <TPSA>
60.7

> <TotalAidCount>
417

> <TotalFormalCharge>
0

> <database>
PubChem Compound

> <matchingCount>
176

> <primaryID>
7628

> <queryTranslation>
7628[CompoundID] OR 244[CompoundID] OR 25059[CompoundID] OR 7618[CompoundID] OR 7641[CompoundID] OR 5053[CompoundID] OR 637511[CompoundID] OR 7714[CompoundID] OR 7762[CompoundID] OR 25429[CompoundID]
OR 8842[CompoundID] OR 7794[CompoundID] OR 637566[CompoundID] OR 7843[CompoundID] OR 174[CompoundID] OR 7870[CompoundID] OR 86102[CompoundID] OR 7888[CompoundID] OR 7896[CompoundID] OR 1140[CompoundID
] OR 8042[CompoundID] OR 8058[CompoundID] OR 8078[CompoundID] OR 8087[CompoundID] OR 8117[CompoundID] OR 8133[CompoundID] OR 115224[CompoundID] OR 8175[CompoundID] OR 8194[CompoundID] OR 445639[Compou
ndID] OR 4944[CompoundID] OR 8294[CompoundID] OR 93541[CompoundID] OR 8360[CompoundID] OR 8363[CompoundID] OR 656612[CompoundID] OR 125098[CompoundID] OR 3352[CompoundID] OR 3303913[CompoundID] OR 648
05[CompoundID] OR 31200[CompoundID] OR 1712058[CompoundID] OR 31236[CompoundID] OR 31239[CompoundID] OR 31265[CompoundID] OR 31266[CompoundID] OR 31276[CompoundID] OR 6950273[CompoundID] OR 518659[Com
poundID] OR 14896[CompoundID] OR 14798[CompoundID] OR 14829[CompoundID] OR 14830[CompoundID] OR 8635[CompoundID] OR 23266[CompoundID] OR 4284[CompoundID] OR 8693[CompoundID] OR 22311[CompoundID] OR 87
59[CompoundID] OR 8785[CompoundID] OR 2723810[CompoundID] OR 8857[CompoundID] OR 3893[CompoundID] OR 9936739[CompoundID] OR 516892[CompoundID] OR 5430[CompoundID] OR 9017[CompoundID] OR 15433[Compound
ID] OR 107720[CompoundID] OR 9552081[CompoundID] OR 164825[CompoundID] OR 10275455[CompoundID] OR 16666[CompoundID] OR 9839306[CompoundID] OR 5282227[CompoundID] OR 23676745[CompoundID] OR 32881[Compo
undID] OR 91581[CompoundID] OR 39800[CompoundID] OR 33344[CompoundID] OR 15962220[CompoundID] OR 33528[CompoundID] OR 5365075[CompoundID] OR 62829[CompoundID] OR 162381[CompoundID] OR 517202[CompoundI
D] OR 6433353[CompoundID] OR 2730[CompoundID] OR 5372405[CompoundID] OR 36081[CompoundID] OR 3120[CompoundID] OR 3017[CompoundID] OR 2969[CompoundID] OR 18827[CompoundID] OR 19518[CompoundID] OR 19658
[CompoundID] OR 38283[CompoundID] OR 2758[CompoundID] OR 10112[CompoundID] OR 10340[CompoundID] OR 712[CompoundID] OR 5794[CompoundID] OR 3347[CompoundID] OR 104150[CompoundID] OR 2912[CompoundID] OR
2450[CompoundID] OR 40326[CompoundID] OR 40585[CompoundID] OR 517055[CompoundID] OR 10913[CompoundID] OR 108242[CompoundID] OR 62097[CompoundID] OR 41679[CompoundID] OR 54680676[CompoundID] OR 62118[C
ompoundID] OR 753[CompoundID] OR 1030[CompoundID] OR 23673837[CompoundID] OR 54678504[CompoundID] OR 11442[CompoundID] OR 11463[CompoundID] OR 22230[CompoundID] OR 440917[CompoundID] OR 6054[CompoundI
D] OR 43234[CompoundID] OR 22629[CompoundID] OR 3039[CompoundID] OR 2735067[CompoundID] OR 6144[CompoundID] OR 702[CompoundID] OR 284[CompoundID] OR 176[CompoundID] OR 91688[CompoundID] OR 22947[Compo
undID] OR 47445[CompoundID] OR 1711973[CompoundID] OR 243[CompoundID] OR 10342051[CompoundID] OR 5281875[CompoundID] OR 3776[CompoundID] OR 6224[CompoundID] OR 104926[CompoundID] OR 8755[CompoundID] O
R 338[CompoundID] OR 123622[CompoundID] OR 23954[CompoundID] OR 6334[CompoundID] OR 2537[CompoundID] OR 24261[CompoundID] OR 23665760[CompoundID] OR 83975[CompoundID] OR 784[CompoundID] OR 24437[Compo
undID] OR 5360315[CompoundID] OR 311[CompoundID] OR 6549[CompoundID] OR 107689[CompoundID] OR 17100[CompoundID] OR 24976875[CompoundID] OR 6654[CompoundID] OR 71245[CompoundID] OR 6442842[CompoundID]
OR 62334[CompoundID] OR 54698175[CompoundID] OR 6328154[CompoundID] OR 24762[CompoundID] OR 440950[CompoundID] OR 7017[CompoundID] OR 5281873[CompoundID] OR 323[CompoundID] OR 5281167[CompoundID] OR 7
175[CompoundID] OR 7292[CompoundID] OR 6335613[CompoundID] OR 7456[CompoundID] OR 7462[CompoundID]

> <resultIndex>
132

> <resultRange>
1-176

> <textQuery>
7628,244,25059,7618,7641,5053,637511,7714,7762,25429,8842,7794,637566,7843,174,7870,86102,7888,7896,1140,8042,8058,8078,8087,8117,8133,115224,8175,8194,445639,4944,8294,93541,8360,8363,656612,125098,3
352,3303913,64805,31200,1712058,31236,31239,31265,31266,31276,6950273,518659,14896,14798,14829,14830,8635,23266,4284,8693,22311,8759,8785,2723810,8857,3893,9936739,516892,5430,9017,15433,107720,955208
1,164825,10275455,16666,9839306,5282227,23676745,32881,91581,39800,33344,15962220,33528,5365075,62829,162381,517202,6433353,2730,5372405,36081,3120,3017,2969,18827,19518,19658,38283,2758,10112,10340,7
12,5794,3347,104150,2912,2450,40326,40585,517055,10913,108242,62097,41679,54680676,62118,753,1030,23673837,54678504,11442,11463,22230,440917,6054,43234,22629,3039,2735067,6144,702,284,176,91688,22947,
47445,1711973,243,10342051,5281875,3776,6224,104926,8755,338,123622,23954,6334,2537,24261,23665760,83975,784,24437,5360315,311,6549,107689,17100,24976875,6654,71245,6442842,62334,54698175,6328154,2476
2,440950,7017,5281873,323,5281167,7175,7292,6335613,7456,7462

$$$$
7,618
  SciTegic10191915303D

 25 24  0  0  0  0            999 V2000
    1.4650   -0.0080   -0.0840 C   0  0
    1.9440   -1.4590   -0.0840 C   0  0
    3.3540   -1.4590   -0.0840 O   0  0
    0.0140    0.0510   -0.0290 N   0  0
   -0.4260    1.3280    0.5040 C   0  0
   -0.3400    1.3280    2.0290 C   0  0
   -0.8530    2.5550    2.5000 O   0  0
   -0.5550   -0.1720   -1.3500 C   0  0
   -1.9710   -0.7360   -1.2340 C   0  0
   -2.4550   -0.9810   -2.5350 O   0  0
    1.8810    0.5350    0.7640 H   0  0
    1.8170    0.5140   -0.9750 H   0  0
    1.6040   -1.9770   -0.9830 H   0  0
    1.6040   -1.9770    0.8120 H   0  0
    3.6390   -2.3870   -0.0840 H   0  0
   -1.4450    1.5290    0.1760 H   0  0
    0.1860    2.1270    0.0840 H   0  0
    0.6970    1.2480    2.3570 H   0  0
   -0.9430    0.5230    2.4510 H   0  0
   -0.7910    2.5390    3.4690 H   0  0
   -0.5560    0.7640   -1.9060 H   0  0
    0.0860   -0.8540   -1.9100 H   0  0
   -1.9670   -1.6800   -0.6900 H   0  0
   -2.6350   -0.0160   -0.7540 H   0  0
   -3.3530   -1.3360   -2.4430 H   0  0
  1  2  1  0
  1  4  1  0
  2  3  1  0
  4  5  1  0
  4  8  1  0
  5  6  1  0
  6  7  1  0
  8  9  1  0
  9 10  1  0
  1 11  1  0
  1 12  1  0
  2 13  1  0
  2 14  1  0
  3 15  1  0
  5 16  1  0
  5 17  1  0
  6 18  1  0
  6 19  1  0
  7 20  1  0
  8 21  1  0
  8 22  1  0
  9 23  1  0
  9 24  1  0
 10 25  1  0
M  END
> <Name>
7,618

> <OBJECTID>
9223372595203866635

> <ActiveAidCount>
8

> <AtomChiralCount>
0

> <AtomChiralDefCount>
0

> <AtomChiralUndefCount>
0

> <BondChiralCount>
0

> <BondChiralDefCount>
0

> <BondChiralUndefCount>
0

> <CID>
7618

> <CanonicalSmiles>
C(CO)N(CCO)CCO

> <Complexity>
55.7

> <CovalentUnitCount>
1

> <CreateDate>
2004/09/16 00:00

> <HeavyAtomCount>
10

> <HydrogenBondAcceptorCount>
4

> <HydrogenBondDonorCount>
3

> <IUPACName>
2-[bis(2-hydroxyethyl)amino]ethanol

> <InChI>
InChI=1S/C6H15NO3/c8-4-1-7(2-5-9)3-6-10/h8-10H,1-6H2

> <InChIKey>
GSEJCLTVZPLZKY-UHFFFAOYSA-N

> <IsomericSmiles>
C(CO)N(CCO)CCO

> <IsotopeAtomCount>
0

> <MeSHHeading>
triethanolamine

> <MeSHTerm>
triethanolamine acetate
triethanolamine sulfate (2:1)
trolamine
triethanolamine phosphate
triethanolammonium chloride
triethanolamine
triethanolamine tartrate (1:1), (R-(R*,R*))-isomer
triethanolamine citrate (1:1)
triethanolamine sulfite (1:1)
triethanolamine sulfate
triethanolamine titanium salt
triethanolamine citrate
2,2',2''-nitrilotriethanol
triethanolamine maleate
triethanolamine copper salt
triethanolamine hydrochloride
triethanolamine iodohydrate

> <MolecularFormula>
C6H15NO3

> <MolecularWeight>
149.19

> <RotatableBondCount>
6

> <Smiles>
C(N(CCO)CCO)CO

> <SourceCategory>
Chemical Vendors
Legacy Depositors
Research and Development
Curation Efforts
Governmental Organizations
NIH Initiatives
Subscription Services
Journal Publishers

> <Synonym>
TRIETHANOLAMINE
Trolamine
102-71-6
2,2',2''-Nitrilotriethanol
Sterolamide
Daltogen
Tris(2-hydroxyethyl)amine
Triethylolamine
Nitrilotriethanol
Trihydroxytriethylamine
Thiofaco T-35
Triethanolamin
Sting-Kill
Tri(hydroxyethyl)amine
Sodium ISA
Ethanol, 2,2',2''-nitrilotris-
Nitrilo-2,2',2''-triethanol
Tris(beta-hydroxyethyl)amine
Alkanolamine 244
Teoa
TEA (amino alcohol)
Nitrilotris(ethanol)
2,2',2''-Nitrilotris(ethanol)
Tris(hydroxyethyl)amine
Triethanolamin-NG
H3tea
Triaethanolamin-NG
2,2',2-Nitrilotriethanol
N(CH2CH2OH)3
Caswell No. 886
Mobisyl
2,2',2''-Nitrilotrisethanol
Trola
Triethanolamine homopolymer
2,2',2''-Trihydroxytriethylamine
Poly(triethanolamine) ether
Tris(2-Hydroxyethyl) Amine
Trihydroxyethylamine
Trolamine (NF)
Trolamine [NF]
UNII-9O3K93S3TK
MFCD00002855
NSC 36718
CCRIS 606
Mobisy (TN)
Triethylamine, 2,2',2''-trihydroxy-
HSDB 893
2-[bis(2-hydroxyethyl)amino]ethan-1-ol
Triethanolamine condensate polymer
Ethanol, 2,2',2''-nitrilotri-
Ethanol, 2,2',2''-nitrilotris-, homopolymer
EINECS 203-049-8
2-[bis(2-hydroxyethyl)amino]ethanol
EPA Pesticide Chemical Code 004208
NCIOpen2_004601
2,2',2"-Nitrilotriethanol
2,2',2'-Nitrilotriethanol
AI3-01140
9O3K93S3TK
C6H15NO3
2,2',2-Nitrilotris(ethanol)
CHEBI:28621
GSEJCLTVZPLZKY-UHFFFAOYSA-N
2,2',2''-Nitrilotris[ethanol]
Ethanol, 2,2',2'-nitrilotris-
NCGC00159411-02
T-35
Triethanolamine, 99+%
DSSTox_CID_1392
tri-(2-hydroxyethyl)amine
Tri-beta-hydroxy Ethylamine
tris-(2-hydroxyethyl)amine
DSSTox_RID_76134
DSSTox_GSID_21392
Biafine
Trolamine [INN]
CAS-102-71-6
Cerumenex
Alkano
Mobisy
Triethanolamine 85%
Triethanolamine 99%
ACMC-20ajek
Mobisyl (Salt/Mix)
Triethanolamine, USP
TRIETHANOL AMINE
Triethanolamine, 97%
AC1Q7CYC
Tris(b-hydroxyethyl)amine
2,2''-Nitrilotriethanol
2,2,2-Nitrilotriethanol
bmse000379
EC 203-049-8
N(EtOH)3;
Nitrilo-2,2''-triethanol
SCHEMBL1146
Oprea1_614203
WLN: Q2N2Q2Q
tris(beta -hydroxyethyl)amine
64114-46-1
KSC492A8N
2,2''-Nitrilotris[ethanol]
BIDD:ER0261
Ey(2-oCOO>>u) degrees .
Ethanol,2',2''-nitrilotri-
Tris(.beta.-hydroxyethyl)amine
AC1L1P67
CHEMBL446061
Ethanol,2',2''-nitrilotris-
Triethanolamine, LR, >=99%
2,2',2'-Nitrilotris-Ethanol
2,2'2''-Nitrilotris-Ethanol
2,2', 2''-Nitrilotriethanol
2,2',2Quot -Nitrilotriethanol
DTXSID9021392
2,2',2''-Nitrilotri-Ethanol
2,2',2''-Trihydroxyethylamine
CTK3J2086
2,2',2''-Nitrilotris-Ethanol
Nitrilo-2,2',2quot -triethanol
Triethanolamine, p.a., 99.0%
LS-84
Triethanolamine, AR, >=99.5%
ZINC896409
2,2',2"-Trihydroxy-triethylamine
Triethanolamine 99% Reagent Grade
Triethylamine,2',2''-trihydroxy-
ADAL1017515
HY-B1809
NSC36718
Tox21_113166
Tox21_202062
Tox21_300527
Triethanolamine, >=99.0% (GC)
2,2',2''-Trihydroxy-Triethylamine
NSC-36718
SBB058707
STL264185
Triethanolamine, reagent grade, 98%
AKOS000119997
CS-5859
DB13747
EBD2205814
MCULE-1846755153
RP21273
RTR-032451
TRA0060771
637-39-8 (unspecified hydrochloride)
KS-00000X87
SMP2_000190
TEA, 0.2M buffer solution, pH 7.0
TEA, 0.2M buffer solution, pH 8.0
NCGC00159411-03
NCGC00159411-04
NCGC00159411-05
NCGC00159411-06
NCGC00254460-01
NCGC00259611-01
7376-31-0 (unspecified sulfate salt)
AJ-24234
BP-21029
SC-47388
Triethanolamine, USP, 99.0-107.4%
7376-31-0 (Unspecified sulphate salt)
TR-032451
135-EP2269610A2
135-EP2269978A2
135-EP2269985A2
135-EP2269989A1
135-EP2269990A1
135-EP2269991A2
135-EP2270002A1
135-EP2270505A1
135-EP2272516A2
135-EP2272822A1
135-EP2272832A1
135-EP2272841A1
135-EP2272848A1
135-EP2272849A1
135-EP2275401A1
135-EP2275411A2
135-EP2277848A1
135-EP2280001A1
135-EP2281563A1
135-EP2281821A1
135-EP2281823A2
135-EP2281824A1
135-EP2284150A2
135-EP2284151A2
135-EP2284152A2
135-EP2284153A2
135-EP2284155A2
135-EP2284156A2
135-EP2284157A1
135-EP2284164A2
135-EP2287140A2
135-EP2287148A2
135-EP2287150A2
135-EP2287155A1
135-EP2289510A1
135-EP2289883A1
135-EP2289890A1
135-EP2289896A1
135-EP2292592A1
135-EP2292612A2
135-EP2292613A1
135-EP2295402A2
135-EP2295406A1
135-EP2295419A2
135-EP2295426A1
135-EP2295427A1
135-EP2295429A1
135-EP2295433A2
135-EP2295438A1
135-EP2298731A1
135-EP2298742A1
135-EP2298746A1
135-EP2298768A1
135-EP2298770A1
135-EP2298772A1
135-EP2298776A1
135-EP2301936A1
135-EP2302132A1
135-EP2305219A1
135-EP2305637A2
135-EP2305643A1
135-EP2305646A1
135-EP2305685A1
135-EP2308510A1
135-EP2308562A2
135-EP2308828A2
135-EP2308839A1
135-EP2308874A1
135-EP2311806A2
135-EP2311842A2
135-EP2314295A1
135-EP2314298A1
135-EP2314574A1
135-EP2314585A1
135-EP2316457A1
135-EP2316458A1
135-EP2316459A1
135-EP2316825A1
135-EP2316826A1
135-EP2316827A1
135-EP2316828A1
135-EP2316831A1
135-EP2371809A1
135-EP2371811A2
135-EP2372017A1
135-EP2379488A1
FT-0696523
S0377
ST50824158
Triethanolamine, BioUltra, >=99.5% (GC)
Triethanolamine, analytical reference material
Triethanolamine, SAJ first grade, >=98.0%
C06771
D00215
Triethanolamine, JIS special grade, >=98.0%
Triethanolamine, puriss. p.a., >=99% (GC)
Triethanolamine, Vetec(TM) reagent grade, 97%
22211-EP2270010A1
22211-EP2270018A1
22211-EP2272537A2
22211-EP2272825A2
22211-EP2272972A1
22211-EP2272973A1
22211-EP2277872A1
22211-EP2280008A2
22211-EP2281563A1
22211-EP2284157A1
22211-EP2287165A2
22211-EP2287166A2
22211-EP2289879A1
22211-EP2289883A1
22211-EP2289894A2
22211-EP2292589A1
22211-EP2292619A1
22211-EP2292620A2
22211-EP2295402A2
22211-EP2295432A1
22211-EP2295434A2
22211-EP2298742A1
22211-EP2298744A2
22211-EP2298770A1
22211-EP2298779A1
22211-EP2298780A1
22211-EP2301922A1
22211-EP2301928A1
22211-EP2305648A1
22211-EP2305652A2
22211-EP2305660A1
22211-EP2305679A1
22211-EP2305689A1
22211-EP2305695A2
22211-EP2305696A2
22211-EP2305697A2
22211-EP2305698A2
22211-EP2305769A2
22211-EP2308812A2
22211-EP2308861A1
22211-EP2308867A2
22211-EP2308870A2
22211-EP2308873A1
22211-EP2311808A1
22211-EP2311825A1
22211-EP2311829A1
22211-EP2311830A1
22211-EP2311840A1
22211-EP2314593A1
32132-EP2272834A1
32132-EP2275420A1
32132-EP2280008A2
32132-EP2292228A1
32132-EP2292615A1
32132-EP2295415A1
32132-EP2295416A2
32132-EP2298748A2
32132-EP2301928A1
32132-EP2301929A1
32132-EP2301933A1
32132-EP2301935A1
32132-EP2305674A1
32132-EP2311827A1
56753-EP2275408A1
56753-EP2284166A1
56753-EP2287158A1
56753-EP2289483A1
56753-EP2295436A1
56753-EP2298769A1
56753-EP2298773A1
56753-EP2308878A2
56753-EP2379488A1
115480-EP2275420A1
115480-EP2277875A2
115480-EP2280008A2
115480-EP2295416A2
115480-EP2298748A2
115480-EP2298764A1
115480-EP2298765A1
124788-EP2295426A1
124788-EP2295427A1
SR-01000944572
J-525067
SR-01000944572-1
I14-11168
F0001-0071
B886EF22-ACA3-4597-9C73-A087E02F54A7
Trolamine, European Pharmacopoeia (EP) Reference Standard
Trolamine, United States Pharmacopeia (USP) Reference Standard
InChI=1/C6H15NO3/c8-4-1-7(2-5-9)3-6-10/h8-10H,1-6H
Triethanolamine, puriss., meets analytical specification of NF, >=99% (GC)
Trolamine, Pharmaceutical Secondary Standard; Certified Reference Material
2,2 inverted exclamation marka,2 inverted exclamation marka inverted exclamation marka- Imicro feminine>>uEyOO (1/4)
Triethanolamine, PharmaGrade, USP, Manufactured under appropriate GMP controls for pharma or biopharmaceutical production.

> <TPSA>
63.9

> <TotalAidCount>
318

> <TotalFormalCharge>
0

> <XLogP>
-1

> <database>
PubChem Compound

> <matchingCount>
176

> <primaryID>
7618

> <queryTranslation>
7628[CompoundID] OR 244[CompoundID] OR 25059[CompoundID] OR 7618[CompoundID] OR 7641[CompoundID] OR 5053[CompoundID] OR 637511[CompoundID] OR 7714[CompoundID] OR 7762[CompoundID] OR 25429[CompoundID]
OR 8842[CompoundID] OR 7794[CompoundID] OR 637566[CompoundID] OR 7843[CompoundID] OR 174[CompoundID] OR 7870[CompoundID] OR 86102[CompoundID] OR 7888[CompoundID] OR 7896[CompoundID] OR 1140[CompoundID
] OR 8042[CompoundID] OR 8058[CompoundID] OR 8078[CompoundID] OR 8087[CompoundID] OR 8117[CompoundID] OR 8133[CompoundID] OR 115224[CompoundID] OR 8175[CompoundID] OR 8194[CompoundID] OR 445639[Compou
ndID] OR 4944[CompoundID] OR 8294[CompoundID] OR 93541[CompoundID] OR 8360[CompoundID] OR 8363[CompoundID] OR 656612[CompoundID] OR 125098[CompoundID] OR 3352[CompoundID] OR 3303913[CompoundID] OR 648
05[CompoundID] OR 31200[CompoundID] OR 1712058[CompoundID] OR 31236[CompoundID] OR 31239[CompoundID] OR 31265[CompoundID] OR 31266[CompoundID] OR 31276[CompoundID] OR 6950273[CompoundID] OR 518659[Com
poundID] OR 14896[CompoundID] OR 14798[CompoundID] OR 14829[CompoundID] OR 14830[CompoundID] OR 8635[CompoundID] OR 23266[CompoundID] OR 4284[CompoundID] OR 8693[CompoundID] OR 22311[CompoundID] OR 87
59[CompoundID] OR 8785[CompoundID] OR 2723810[CompoundID] OR 8857[CompoundID] OR 3893[CompoundID] OR 9936739[CompoundID] OR 516892[CompoundID] OR 5430[CompoundID] OR 9017[CompoundID] OR 15433[Compound
ID] OR 107720[CompoundID] OR 9552081[CompoundID] OR 164825[CompoundID] OR 10275455[CompoundID] OR 16666[CompoundID] OR 9839306[CompoundID] OR 5282227[CompoundID] OR 23676745[CompoundID] OR 32881[Compo
undID] OR 91581[CompoundID] OR 39800[CompoundID] OR 33344[CompoundID] OR 15962220[CompoundID] OR 33528[CompoundID] OR 5365075[CompoundID] OR 62829[CompoundID] OR 162381[CompoundID] OR 517202[CompoundI
D] OR 6433353[CompoundID] OR 2730[CompoundID] OR 5372405[CompoundID] OR 36081[CompoundID] OR 3120[CompoundID] OR 3017[CompoundID] OR 2969[CompoundID] OR 18827[CompoundID] OR 19518[CompoundID] OR 19658
[CompoundID] OR 38283[CompoundID] OR 2758[CompoundID] OR 10112[CompoundID] OR 10340[CompoundID] OR 712[CompoundID] OR 5794[CompoundID] OR 3347[CompoundID] OR 104150[CompoundID] OR 2912[CompoundID] OR
2450[CompoundID] OR 40326[CompoundID] OR 40585[CompoundID] OR 517055[CompoundID] OR 10913[CompoundID] OR 108242[CompoundID] OR 62097[CompoundID] OR 41679[CompoundID] OR 54680676[CompoundID] OR 62118[C
ompoundID] OR 753[CompoundID] OR 1030[CompoundID] OR 23673837[CompoundID] OR 54678504[CompoundID] OR 11442[CompoundID] OR 11463[CompoundID] OR 22230[CompoundID] OR 440917[CompoundID] OR 6054[CompoundI
D] OR 43234[CompoundID] OR 22629[CompoundID] OR 3039[CompoundID] OR 2735067[CompoundID] OR 6144[CompoundID] OR 702[CompoundID] OR 284[CompoundID] OR 176[CompoundID] OR 91688[CompoundID] OR 22947[Compo
undID] OR 47445[CompoundID] OR 1711973[CompoundID] OR 243[CompoundID] OR 10342051[CompoundID] OR 5281875[CompoundID] OR 3776[CompoundID] OR 6224[CompoundID] OR 104926[CompoundID] OR 8755[CompoundID] O
R 338[CompoundID] OR 123622[CompoundID] OR 23954[CompoundID] OR 6334[CompoundID] OR 2537[CompoundID] OR 24261[CompoundID] OR 23665760[CompoundID] OR 83975[CompoundID] OR 784[CompoundID] OR 24437[Compo
undID] OR 5360315[CompoundID] OR 311[CompoundID] OR 6549[CompoundID] OR 107689[CompoundID] OR 17100[CompoundID] OR 24976875[CompoundID] OR 6654[CompoundID] OR 71245[CompoundID] OR 6442842[CompoundID]
OR 62334[CompoundID] OR 54698175[CompoundID] OR 6328154[CompoundID] OR 24762[CompoundID] OR 440950[CompoundID] OR 7017[CompoundID] OR 5281873[CompoundID] OR 323[CompoundID] OR 5281167[CompoundID] OR 7
175[CompoundID] OR 7292[CompoundID] OR 6335613[CompoundID] OR 7456[CompoundID] OR 7462[CompoundID]

> <resultIndex>
133

> <resultRange>
1-176

> <textQuery>
7628,244,25059,7618,7641,5053,637511,7714,7762,25429,8842,7794,637566,7843,174,7870,86102,7888,7896,1140,8042,8058,8078,8087,8117,8133,115224,8175,8194,445639,4944,8294,93541,8360,8363,656612,125098,3
352,3303913,64805,31200,1712058,31236,31239,31265,31266,31276,6950273,518659,14896,14798,14829,14830,8635,23266,4284,8693,22311,8759,8785,2723810,8857,3893,9936739,516892,5430,9017,15433,107720,955208
1,164825,10275455,16666,9839306,5282227,23676745,32881,91581,39800,33344,15962220,33528,5365075,62829,162381,517202,6433353,2730,5372405,36081,3120,3017,2969,18827,19518,19658,38283,2758,10112,10340,7
12,5794,3347,104150,2912,2450,40326,40585,517055,10913,108242,62097,41679,54680676,62118,753,1030,23673837,54678504,11442,11463,22230,440917,6054,43234,22629,3039,2735067,6144,702,284,176,91688,22947,
47445,1711973,243,10342051,5281875,3776,6224,104926,8755,338,123622,23954,6334,2537,24261,23665760,83975,784,24437,5360315,311,6549,107689,17100,24976875,6654,71245,6442842,62334,54698175,6328154,2476
2,440950,7017,5281873,323,5281167,7175,7292,6335613,7456,7462

$$$$
7,462
  SciTegic10191915303D

 26 26  0  0  0  0            999 V2000
   -2.5390    0.1970    1.4080 C   0  0
   -1.8910    0.9120    0.2230 C   0  0
   -2.7250    0.8120   -1.0550 C   0  0
   -0.4590    0.4900    0.0100 C   0  0
    0.5610    1.3440    0.2340 C   0  0
    1.9610    0.9140    0.0640 C   0  0
    2.2770   -0.3930   -0.0550 C   0  0
    3.7010   -0.8320   -0.2730 C   0  0
    1.1900   -1.4420    0.0330 C   0  0
   -0.1720   -0.9180   -0.4690 C   0  0
   -1.9320    0.2730    2.3110 H   0  0
   -2.6800   -0.8610    1.1890 H   0  0
   -3.5180    0.6250    1.6290 H   0  0
   -1.6840    1.9550    0.4690 H   0  0
   -2.2480    1.3570   -1.8690 H   0  0
   -2.8530   -0.2290   -1.3500 H   0  0
   -3.7150    1.2400   -0.9020 H   0  0
    0.3580    2.3590    0.5410 H   0  0
    2.7380    1.6620    0.0390 H   0  0
    4.4380   -0.1600    0.1680 H   0  0
    3.9100   -0.8990   -1.3420 H   0  0
    3.8560   -1.8200    0.1580 H   0  0
    1.0940   -1.7480    1.0760 H   0  0
    1.4790   -2.3320   -0.5250 H   0  0
   -0.9710   -1.5920   -0.1540 H   0  0
   -0.1780   -0.9160   -1.5590 H   0  0
  1  2  1  0
  2  3  1  0
  2  4  1  0
  4  5  2  0
  4 10  1  0
  5  6  1  0
  6  7  2  0
  7  8  1  0
  7  9  1  0
  9 10  1  0
  1 11  1  0
  1 12  1  0
  1 13  1  0
  2 14  1  0
  3 15  1  0
  3 16  1  0
  3 17  1  0
  5 18  1  0
  6 19  1  0
  8 20  1  0
  8 21  1  0
  8 22  1  0
  9 23  1  0
  9 24  1  0
 10 25  1  0
 10 26  1  0
M  END
> <Name>
7,462

> <OBJECTID>
9223372599498833931

> <ActiveAidCount>
0

> <AtomChiralCount>
0

> <AtomChiralDefCount>
0

> <AtomChiralUndefCount>
0

> <BondChiralCount>
0

> <BondChiralDefCount>
0

> <BondChiralUndefCount>
0

> <CID>
7462

> <CanonicalSmiles>
CC1=CC=C(CC1)C(C)C

> <Complexity>
171

> <CovalentUnitCount>
1

> <CreateDate>
2004/09/16 00:00

> <HeavyAtomCount>
10

> <HydrogenBondAcceptorCount>
0

> <HydrogenBondDonorCount>
0

> <IUPACName>
1-methyl-4-propan-2-ylcyclohexa-1,3-diene

> <InChI>
InChI=1S/C10H16/c1-8(2)10-6-4-9(3)5-7-10/h4,6,8H,5,7H2,1-3H3

> <InChIKey>
YHQGMYUVUMAZJR-UHFFFAOYSA-N

> <IsomericSmiles>
CC1=CC=C(CC1)C(C)C

> <IsotopeAtomCount>
0

> <MeSHHeading>
gamma-terpinene

> <MeSHTerm>
alpha-terpinene
1,4-p-menthadiene
beta-terpinene
gamma-terpinene

> <MolecularFormula>
C10H16

> <MolecularWeight>
136.23

> <RotatableBondCount>
1

> <Smiles>
CC(C1=CC=C(CC1)C)C

> <SourceCategory>
Legacy Depositors
Chemical Vendors
Research and Development
Curation Efforts
Governmental Organizations
NIH Initiatives
Subscription Services
Journal Publishers

> <Synonym>
ALPHA-TERPINENE
99-86-5
p-Mentha-1,3-diene
Terpilene
1-Isopropyl-4-methyl-1,3-cyclohexadiene
1,3-Cyclohexadiene, 1-methyl-4-(1-methylethyl)-
alpha-Terpinen
1-Methyl-4-(1-methylethyl)-1,3-cyclohexadiene
1-Methyl-4-isopropylcyclohexadiene-1,3
.alpha.-Terpinen
.alpha.-Terpinene
UNII-I24X278AP1
FEMA No. 3558
CCRIS 9058
CHEBI:10334
1-isopropyl-4-methyl-cyclohexa-1,3-diene
1,3-Cyclohexadiene, 1-methyl-4-isopropyl-
EINECS 202-795-1
AI3-26467
1-methyl-4-propan-2-ylcyclohexa-1,3-diene
YHQGMYUVUMAZJR-UHFFFAOYSA-N
I24X278AP1
MFCD00001534
1-isopropyl-4-methylcyclohexa-1,3-diene
1-Methyl-4-isopropyl-1,3-cyclohexadiene
1-methyl-4-(propan-2-yl)cyclohexa-1,3-diene
W-100014
alpha-Terpinene, 90%, tech.
alphaTerpinene
a-terpinene
alpha -Terpinene
.alpha.-Terpine
alpha-Terpinene, 85%
AC1L1OTD
Epitope ID:123897
DSSTox_CID_21237
DSSTox_RID_79657
DSSTox_GSID_41237
CHEMBL2251642
DTXSID9041237
FEMA 3558
ZINC967593
alpha-Terpinene, analytical standard
Tox21_301126
alpha-Terpinene, >=95.0% (GC)
AKOS015841730
alpha-Terpinene, >=89%, FCC, FG
LMPR0102090026
LS-3104
CAS-99-86-5
NCGC00248299-01
NCGC00255025-01
AN-24527
SC-20197
BB0295842
FT-0622940
M0317
C09898
A-Terpinene =89%, contains BHT as stabilizer
I14-51685
InChI=1/C10H16/c1-8(2)10-6-4-9(3)5-7-10/h4,6,8H,5,7H2,1-3H

> <TPSA>
0

> <TotalAidCount>
220

> <TotalFormalCharge>
0

> <XLogP>
2.8

> <database>
PubChem Compound

> <matchingCount>
176

> <primaryID>
7462

> <queryTranslation>
7628[CompoundID] OR 244[CompoundID] OR 25059[CompoundID] OR 7618[CompoundID] OR 7641[CompoundID] OR 5053[CompoundID] OR 637511[CompoundID] OR 7714[CompoundID] OR 7762[CompoundID] OR 25429[CompoundID]
OR 8842[CompoundID] OR 7794[CompoundID] OR 637566[CompoundID] OR 7843[CompoundID] OR 174[CompoundID] OR 7870[CompoundID] OR 86102[CompoundID] OR 7888[CompoundID] OR 7896[CompoundID] OR 1140[CompoundID
] OR 8042[CompoundID] OR 8058[CompoundID] OR 8078[CompoundID] OR 8087[CompoundID] OR 8117[CompoundID] OR 8133[CompoundID] OR 115224[CompoundID] OR 8175[CompoundID] OR 8194[CompoundID] OR 445639[Compou
ndID] OR 4944[CompoundID] OR 8294[CompoundID] OR 93541[CompoundID] OR 8360[CompoundID] OR 8363[CompoundID] OR 656612[CompoundID] OR 125098[CompoundID] OR 3352[CompoundID] OR 3303913[CompoundID] OR 648
05[CompoundID] OR 31200[CompoundID] OR 1712058[CompoundID] OR 31236[CompoundID] OR 31239[CompoundID] OR 31265[CompoundID] OR 31266[CompoundID] OR 31276[CompoundID] OR 6950273[CompoundID] OR 518659[Com
poundID] OR 14896[CompoundID] OR 14798[CompoundID] OR 14829[CompoundID] OR 14830[CompoundID] OR 8635[CompoundID] OR 23266[CompoundID] OR 4284[CompoundID] OR 8693[CompoundID] OR 22311[CompoundID] OR 87
59[CompoundID] OR 8785[CompoundID] OR 2723810[CompoundID] OR 8857[CompoundID] OR 3893[CompoundID] OR 9936739[CompoundID] OR 516892[CompoundID] OR 5430[CompoundID] OR 9017[CompoundID] OR 15433[Compound
ID] OR 107720[CompoundID] OR 9552081[CompoundID] OR 164825[CompoundID] OR 10275455[CompoundID] OR 16666[CompoundID] OR 9839306[CompoundID] OR 5282227[CompoundID] OR 23676745[CompoundID] OR 32881[Compo
undID] OR 91581[CompoundID] OR 39800[CompoundID] OR 33344[CompoundID] OR 15962220[CompoundID] OR 33528[CompoundID] OR 5365075[CompoundID] OR 62829[CompoundID] OR 162381[CompoundID] OR 517202[CompoundI
D] OR 6433353[CompoundID] OR 2730[CompoundID] OR 5372405[CompoundID] OR 36081[CompoundID] OR 3120[CompoundID] OR 3017[CompoundID] OR 2969[CompoundID] OR 18827[CompoundID] OR 19518[CompoundID] OR 19658
[CompoundID] OR 38283[CompoundID] OR 2758[CompoundID] OR 10112[CompoundID] OR 10340[CompoundID] OR 712[CompoundID] OR 5794[CompoundID] OR 3347[CompoundID] OR 104150[CompoundID] OR 2912[CompoundID] OR
2450[CompoundID] OR 40326[CompoundID] OR 40585[CompoundID] OR 517055[CompoundID] OR 10913[CompoundID] OR 108242[CompoundID] OR 62097[CompoundID] OR 41679[CompoundID] OR 54680676[CompoundID] OR 62118[C
ompoundID] OR 753[CompoundID] OR 1030[CompoundID] OR 23673837[CompoundID] OR 54678504[CompoundID] OR 11442[CompoundID] OR 11463[CompoundID] OR 22230[CompoundID] OR 440917[CompoundID] OR 6054[CompoundI
D] OR 43234[CompoundID] OR 22629[CompoundID] OR 3039[CompoundID] OR 2735067[CompoundID] OR 6144[CompoundID] OR 702[CompoundID] OR 284[CompoundID] OR 176[CompoundID] OR 91688[CompoundID] OR 22947[Compo
undID] OR 47445[CompoundID] OR 1711973[CompoundID] OR 243[CompoundID] OR 10342051[CompoundID] OR 5281875[CompoundID] OR 3776[CompoundID] OR 6224[CompoundID] OR 104926[CompoundID] OR 8755[CompoundID] O
R 338[CompoundID] OR 123622[CompoundID] OR 23954[CompoundID] OR 6334[CompoundID] OR 2537[CompoundID] OR 24261[CompoundID] OR 23665760[CompoundID] OR 83975[CompoundID] OR 784[CompoundID] OR 24437[Compo
undID] OR 5360315[CompoundID] OR 311[CompoundID] OR 6549[CompoundID] OR 107689[CompoundID] OR 17100[CompoundID] OR 24976875[CompoundID] OR 6654[CompoundID] OR 71245[CompoundID] OR 6442842[CompoundID]
OR 62334[CompoundID] OR 54698175[CompoundID] OR 6328154[CompoundID] OR 24762[CompoundID] OR 440950[CompoundID] OR 7017[CompoundID] OR 5281873[CompoundID] OR 323[CompoundID] OR 5281167[CompoundID] OR 7
175[CompoundID] OR 7292[CompoundID] OR 6335613[CompoundID] OR 7456[CompoundID] OR 7462[CompoundID]

> <resultIndex>
134

> <resultRange>
1-176

> <textQuery>
7628,244,25059,7618,7641,5053,637511,7714,7762,25429,8842,7794,637566,7843,174,7870,86102,7888,7896,1140,8042,8058,8078,8087,8117,8133,115224,8175,8194,445639,4944,8294,93541,8360,8363,656612,125098,3
352,3303913,64805,31200,1712058,31236,31239,31265,31266,31276,6950273,518659,14896,14798,14829,14830,8635,23266,4284,8693,22311,8759,8785,2723810,8857,3893,9936739,516892,5430,9017,15433,107720,955208
1,164825,10275455,16666,9839306,5282227,23676745,32881,91581,39800,33344,15962220,33528,5365075,62829,162381,517202,6433353,2730,5372405,36081,3120,3017,2969,18827,19518,19658,38283,2758,10112,10340,7
12,5794,3347,104150,2912,2450,40326,40585,517055,10913,108242,62097,41679,54680676,62118,753,1030,23673837,54678504,11442,11463,22230,440917,6054,43234,22629,3039,2735067,6144,702,284,176,91688,22947,
47445,1711973,243,10342051,5281875,3776,6224,104926,8755,338,123622,23954,6334,2537,24261,23665760,83975,784,24437,5360315,311,6549,107689,17100,24976875,6654,71245,6442842,62334,54698175,6328154,2476
2,440950,7017,5281873,323,5281167,7175,7292,6335613,7456,7462

$$$$
7,456
  SciTegic10191915303D

 19 19  0  0  0  0            999 V2000
    0.8570    3.6150    0.0090 C   0  0
    0.1310    2.3950    0.0040 O   0  0
    0.9280    1.3300    0.0040 C   0  0
    0.2280    0.0120    0.0040 C   0  0
   -1.1760   -0.0410    0.0040 C   0  0
   -1.8320   -1.2830    0.0040 C   0  0
   -1.0900   -2.4790    0.0040 C   0  0
    0.3160   -2.4220    0.0040 C   0  0
    0.9750   -1.1820    0.0040 C   0  0
   -1.7070   -3.6430    0.0040 O   0  0
    2.1350    1.3950    0.0040 O   0  0
    0.1440    4.4360   -0.0710 H   0  0
    1.5060    3.6210    0.8840 H   0  0
    1.4920    3.6390   -0.8770 H   0  0
   -1.7580    0.8690    0.0040 H   0  0
   -2.9120   -1.3180    0.0040 H   0  0
    0.8920   -3.3360    0.0040 H   0  0
    2.0550   -1.1520    0.0040 H   0  0
   -1.1840   -4.4550    0.0040 H   0  0
  1  2  1  0
  2  3  1  0
  3  4  1  0
  3 11  2  0
  4  5  2  0
  4  9  1  0
  5  6  1  0
  6  7  2  0
  7  8  1  0
  7 10  1  0
  8  9  2  0
  1 12  1  0
  1 13  1  0
  1 14  1  0
  5 15  1  0
  6 16  1  0
  8 17  1  0
  9 18  1  0
 10 19  1  0
M  END
> <Name>
7,456

> <OBJECTID>
9223372603793801227

> <ActiveAidCount>
15

> <AtomChiralCount>
0

> <AtomChiralDefCount>
0

> <AtomChiralUndefCount>
0

> <BondChiralCount>
0

> <BondChiralDefCount>
0

> <BondChiralUndefCount>
0

> <CID>
7456

> <CanonicalSmiles>
COC(=O)C1=CC=C(C=C1)O

> <Complexity>
136

> <CovalentUnitCount>
1

> <CreateDate>
2005/03/26 00:00

> <HeavyAtomCount>
11

> <HydrogenBondAcceptorCount>
3

> <HydrogenBondDonorCount>
1

> <IUPACName>
methyl 4-hydroxybenzoate

> <InChI>
InChI=1S/C8H8O3/c1-11-8(10)6-2-4-7(9)5-3-6/h2-5,9H,1H3

> <InChIKey>
LXCFILQKKLGQFO-UHFFFAOYSA-N

> <IsomericSmiles>
COC(=O)C1=CC=C(C=C1)O

> <IsotopeAtomCount>
0

> <MeSHHeading>
methylparaben

> <MeSHTerm>
methyl p-hydroxybenzoate
4-hydroxybenzoic acid methyl ester
methyl-4-hydroxybenzoate
Nipagin
methylparaben, sodium salt
methylparaben

> <MolecularFormula>
C8H8O3

> <MolecularWeight>
152.15

> <PharmAction>
Preservatives, Pharmaceutical
Specialty Uses of Chemicals
Pharmaceutic Aids
Chemical Actions and Uses
Pharmaceutical Preparations

> <RotatableBondCount>
2

> <Smiles>
COC(=O)c1ccc(O)cc1

> <SourceCategory>
Chemical Vendors
Legacy Depositors
Research and Development
Curation Efforts
Governmental Organizations
NIH Initiatives
Subscription Services
Journal Publishers

> <Synonym>
Methyl 4-hydroxybenzoate
METHYLPARABEN
99-76-3
Methyl paraben
Methyl p-hydroxybenzoate
Nipagin
Methyl parahydroxybenzoate
Maseptol
4-Hydroxybenzoic acid methyl ester
p-Carbomethoxyphenol
Tegosept M
p-Hydroxybenzoic acid methyl ester
Methaben
Metoxyde
Preserval
Metaben
Moldex
p-Methoxycarbonylphenol
Paridol
Septos
Solbrol
Methyl parasept
Methyl butex
Methyl chemosept
Nipagin M
Benzoic acid, 4-hydroxy-, methyl ester
Aseptoform
Methylben
Abiol
Preserval M
Solbrol M
Methyl-p-hydroxybenzoate
4-(Methoxycarbonyl)phenol
Methyl p-oxybenzoate
4-Hydroxybenzoic acid, methyl ester
Methyl ester of p-hydroxybenzoic acid
p-Oxybenzoesauremethylester
FEMA No. 2710
Caswell No. 573PP
Benzoic acid, p-hydroxy-, methyl ester
FEMA Number 2710
UNII-A2I8C7HI9T
NSC 3827
p-Hydroxybenzoic acid, methyl ester
MFCD00002352
p-Hydroxybenzoic methyl ester
CCRIS 3946
HSDB 1184
4-HYDROXY-BENZOIC ACID METHYL ESTER
p-Oxybenzoesauremethylester [German]
EINECS 202-785-7
Methylester kyseliny p-hydroxybenzoove
EPA Pesticide Chemical Code 061201
BRN 0509801
A2I8C7HI9T
AI3-01336
CHEMBL325372
CHEBI:31835
Methylester kyseliny p-hydroxybenzoove [Czech]
LXCFILQKKLGQFO-UHFFFAOYSA-N
NCGC00159376-02
NCGC00159376-04
E218
DSSTox_CID_2529
WLN: QR DVO1
DSSTox_RID_76616
DSSTox_GSID_22529
Methyl 4-hydroxybenzoate, 99%
CAS-99-76-3
SMR000036660
Methylparaben [USAN]
methyl 4- hydroxybenzoate
Methylparaben [USAN:NF]
Metagin
Tegosept
METHYL4-HYDROXYBENZOATE
Lexgard M
Paraben M
4-carbomethoxyphenol
Methylparaben (NF)
Methylparaben (TN)
INS number 218
Solparol (Salt/Mix)
4-hydroxymethylbenzoate
methyl 4-hydoxybenzoate
ACMC-20aiv0
methyl 4 hydroxybenzoate
AC1L1OSV
methyl 4-hydroxylbenzoate
methyl 4-hydroxy-benzoate
methyl-4-hydroxy-benzoate
Methylis parahydroxybenzoas
Preserval MS (Salt/Mix)
bmse010009
EC 202-785-7
methyl (4-hydroxy)benzoate
cid_7456
SCHEMBL4440
MLS001304047
MLS001304187
ARONIS27185
BIDD:ER0241
4-hydroxybenzoate methyl ester
Methyl 4-Hydroxybenzoate,(S)
INS No. 218
GTPL6273
ZINC1712
Methyl parahydroxybenzoate (TN)
RARECHEM AL BF 0098
DTXSID4022529
FEMA 2710
TIMTEC-BB SBB040908
4-Hydroxybenzoic acid methylester
methyl 4-hydroxybenzenecarboxylate
NSC3827
OTAVA-BB 1310956
4-Hydroxybenzoic acid-methyl ester
HMS2883I08
LABOTEST-BB LTBB002210
Methyl Paraben, analytical standard
Methyl parahydroxybenzoate (JP17)
4-hydroxy benzoic acid methyl ester
CS-D1181
HY-N0349
KS-00000KU0
METHYL PARA HYDROXY BENZOATE
NSC-3827
AKOS BBS-00004393
Tox21_111616
Tox21_202318
Tox21_300009
AN-982
ANW-75370
BBL005648
BDBM50209100
CK1194
NSC406127
SBB040908
STK802470
Aa(2) (1/2)eth(1/4)xo yen
AKOS000119910
Tox21_111616_1
AS01626
MCULE-5368262482
NSC-406127
RP21588
KS-000048O3
4-HYDROXYBENZOIC ACID METYL ESTER
Methyl 4-hydroxybenzoate, >=99%, FCC
NCGC00159376-03
NCGC00159376-05
NCGC00159376-06
NCGC00253939-01
NCGC00259867-01
4CN-0932
AJ-08073
AK-54335
LS-37618
SC-25282
ZB000396
BENZOIC ACID,4-HYDROXY,METHYL ESTER
DB-010250
ST2413413
TC-164115
216-EP2269989A1
216-EP2279750A1
216-EP2287158A1
216-EP2289879A1
216-EP2289893A1
216-EP2295426A1
216-EP2295427A1
216-EP2295439A1
216-EP2305668A1
216-EP2305673A1
216-EP2308838A1
216-EP2308877A1
216-EP2311834A1
BB 0263150
E 218
FT-0618697
M2206
Methyl 4-hydroxybenzoate, analytical standard
Methyl 4-hydroxybenzoate, p.a., 98-102%
ST50214511
(2,2-DIMETHYLDIOXALANE)METHYL BUTYRATE
D01400
M-6148
62345-EP2272817A1
62345-EP2281817A1
62345-EP2308828A2
62345-EP2308839A1
62345-EP2371808A1
Methyl 4-hydroxybenzoate, USP, 98.0-102.0%
108078-EP2272843A1
108078-EP2281817A1
108078-EP2287155A1
108078-EP2295414A1
108078-EP2298746A1
I01-1422
Q-200479
Methyl 4-hydroxybenzoate, SAJ first grade, >=98.0%
Methyl 4-hydroxybenzoate, tested according to Ph.Eur.
Z19674820
F1908-0119
paragraph signOoC>>u+/-(1/2)(1/4)xEa(1/4)xo yen
Methyl 4-hydroxybenzoate, BioXtra, >=99.0% (titration)
Methylparaben, certified reference material, TraceCERT(R)
UNII-AZF98361GV component LXCFILQKKLGQFO-UHFFFAOYSA-N
Methyl 4-hydroxybenzoate, ReagentPlus(R), >=99.0%, crystalline
Methylparaben, United States Pharmacopeia (USP) Reference Standard
InChI=1/C8H8O3/c1-11-8(10)6-2-4-7(9)5-3-6/h2-5,9H,1H
Methyl 4-hydroxybenzoate, BioReagent, suitable for insect cell culture
Methyl parahydroxybenzoate, European Pharmacopoeia (EP) Reference Standard
Methyl parabenMethyl p-hydroxybenzoateMethyl parahydroxybenzoateNipagin ME number E218
Methylparaben, Pharmaceutical Secondary Standard; Certified Reference Material

> <TPSA>
46.5

> <TotalAidCount>
954

> <TotalFormalCharge>
0

> <XLogP>
2

> <database>
PubChem Compound

> <matchingCount>
176

> <primaryID>
7456

> <queryTranslation>
7628[CompoundID] OR 244[CompoundID] OR 25059[CompoundID] OR 7618[CompoundID] OR 7641[CompoundID] OR 5053[CompoundID] OR 637511[CompoundID] OR 7714[CompoundID] OR 7762[CompoundID] OR 25429[CompoundID]
OR 8842[CompoundID] OR 7794[CompoundID] OR 637566[CompoundID] OR 7843[CompoundID] OR 174[CompoundID] OR 7870[CompoundID] OR 86102[CompoundID] OR 7888[CompoundID] OR 7896[CompoundID] OR 1140[CompoundID
] OR 8042[CompoundID] OR 8058[CompoundID] OR 8078[CompoundID] OR 8087[CompoundID] OR 8117[CompoundID] OR 8133[CompoundID] OR 115224[CompoundID] OR 8175[CompoundID] OR 8194[CompoundID] OR 445639[Compou
ndID] OR 4944[CompoundID] OR 8294[CompoundID] OR 93541[CompoundID] OR 8360[CompoundID] OR 8363[CompoundID] OR 656612[CompoundID] OR 125098[CompoundID] OR 3352[CompoundID] OR 3303913[CompoundID] OR 648
05[CompoundID] OR 31200[CompoundID] OR 1712058[CompoundID] OR 31236[CompoundID] OR 31239[CompoundID] OR 31265[CompoundID] OR 31266[CompoundID] OR 31276[CompoundID] OR 6950273[CompoundID] OR 518659[Com
poundID] OR 14896[CompoundID] OR 14798[CompoundID] OR 14829[CompoundID] OR 14830[CompoundID] OR 8635[CompoundID] OR 23266[CompoundID] OR 4284[CompoundID] OR 8693[CompoundID] OR 22311[CompoundID] OR 87
59[CompoundID] OR 8785[CompoundID] OR 2723810[CompoundID] OR 8857[CompoundID] OR 3893[CompoundID] OR 9936739[CompoundID] OR 516892[CompoundID] OR 5430[CompoundID] OR 9017[CompoundID] OR 15433[Compound
ID] OR 107720[CompoundID] OR 9552081[CompoundID] OR 164825[CompoundID] OR 10275455[CompoundID] OR 16666[CompoundID] OR 9839306[CompoundID] OR 5282227[CompoundID] OR 23676745[CompoundID] OR 32881[Compo
undID] OR 91581[CompoundID] OR 39800[CompoundID] OR 33344[CompoundID] OR 15962220[CompoundID] OR 33528[CompoundID] OR 5365075[CompoundID] OR 62829[CompoundID] OR 162381[CompoundID] OR 517202[CompoundI
D] OR 6433353[CompoundID] OR 2730[CompoundID] OR 5372405[CompoundID] OR 36081[CompoundID] OR 3120[CompoundID] OR 3017[CompoundID] OR 2969[CompoundID] OR 18827[CompoundID] OR 19518[CompoundID] OR 19658
[CompoundID] OR 38283[CompoundID] OR 2758[CompoundID] OR 10112[CompoundID] OR 10340[CompoundID] OR 712[CompoundID] OR 5794[CompoundID] OR 3347[CompoundID] OR 104150[CompoundID] OR 2912[CompoundID] OR
2450[CompoundID] OR 40326[CompoundID] OR 40585[CompoundID] OR 517055[CompoundID] OR 10913[CompoundID] OR 108242[CompoundID] OR 62097[CompoundID] OR 41679[CompoundID] OR 54680676[CompoundID] OR 62118[C
ompoundID] OR 753[CompoundID] OR 1030[CompoundID] OR 23673837[CompoundID] OR 54678504[CompoundID] OR 11442[CompoundID] OR 11463[CompoundID] OR 22230[CompoundID] OR 440917[CompoundID] OR 6054[CompoundI
D] OR 43234[CompoundID] OR 22629[CompoundID] OR 3039[CompoundID] OR 2735067[CompoundID] OR 6144[CompoundID] OR 702[CompoundID] OR 284[CompoundID] OR 176[CompoundID] OR 91688[CompoundID] OR 22947[Compo
undID] OR 47445[CompoundID] OR 1711973[CompoundID] OR 243[CompoundID] OR 10342051[CompoundID] OR 5281875[CompoundID] OR 3776[CompoundID] OR 6224[CompoundID] OR 104926[CompoundID] OR 8755[CompoundID] O
R 338[CompoundID] OR 123622[CompoundID] OR 23954[CompoundID] OR 6334[CompoundID] OR 2537[CompoundID] OR 24261[CompoundID] OR 23665760[CompoundID] OR 83975[CompoundID] OR 784[CompoundID] OR 24437[Compo
undID] OR 5360315[CompoundID] OR 311[CompoundID] OR 6549[CompoundID] OR 107689[CompoundID] OR 17100[CompoundID] OR 24976875[CompoundID] OR 6654[CompoundID] OR 71245[CompoundID] OR 6442842[CompoundID]
OR 62334[CompoundID] OR 54698175[CompoundID] OR 6328154[CompoundID] OR 24762[CompoundID] OR 440950[CompoundID] OR 7017[CompoundID] OR 5281873[CompoundID] OR 323[CompoundID] OR 5281167[CompoundID] OR 7
175[CompoundID] OR 7292[CompoundID] OR 6335613[CompoundID] OR 7456[CompoundID] OR 7462[CompoundID]

> <resultIndex>
135

> <resultRange>
1-176

> <textQuery>
7628,244,25059,7618,7641,5053,637511,7714,7762,25429,8842,7794,637566,7843,174,7870,86102,7888,7896,1140,8042,8058,8078,8087,8117,8133,115224,8175,8194,445639,4944,8294,93541,8360,8363,656612,125098,3
352,3303913,64805,31200,1712058,31236,31239,31265,31266,31276,6950273,518659,14896,14798,14829,14830,8635,23266,4284,8693,22311,8759,8785,2723810,8857,3893,9936739,516892,5430,9017,15433,107720,955208
1,164825,10275455,16666,9839306,5282227,23676745,32881,91581,39800,33344,15962220,33528,5365075,62829,162381,517202,6433353,2730,5372405,36081,3120,3017,2969,18827,19518,19658,38283,2758,10112,10340,7
12,5794,3347,104150,2912,2450,40326,40585,517055,10913,108242,62097,41679,54680676,62118,753,1030,23673837,54678504,11442,11463,22230,440917,6054,43234,22629,3039,2735067,6144,702,284,176,91688,22947,
47445,1711973,243,10342051,5281875,3776,6224,104926,8755,338,123622,23954,6334,2537,24261,23665760,83975,784,24437,5360315,311,6549,107689,17100,24976875,6654,71245,6442842,62334,54698175,6328154,2476
2,440950,7017,5281873,323,5281167,7175,7292,6335613,7456,7462

$$$$
7,292
  SciTegic10191915303D

 15 14  0  0  0  0            999 V2000
   -1.0490   -2.0700   -0.4060 O   0  0
   -0.5410   -1.3810    0.7460 N   0  0
    0.5410    0.1030   -0.7960 C   0  0
    0.2090   -0.3540    0.6000 C   0  0
   -0.5570    0.9780   -1.4000 C   0  0
    0.7210    0.3490    1.8290 C   0  0
   -1.5940   -2.8190   -0.1300 H   0  0
    1.4420    0.7190   -0.7790 H   0  0
    0.7400   -0.7600   -1.4310 H   0  0
   -0.2730    1.3180   -2.3960 H   0  0
   -1.4940    0.4280   -1.4680 H   0  0
   -0.7300    1.8590   -0.7850 H   0  0
    0.3870   -0.1080    2.7600 H   0  0
    0.3870    1.3870    1.8290 H   0  0
    1.8110    0.3490    1.8290 H   0  0
  1  2  1  0
  2  4  2  3
  3  4  1  0
  3  5  1  0
  4  6  1  0
  1  7  1  0
  3  8  1  0
  3  9  1  0
  5 10  1  0
  5 11  1  0
  5 12  1  0
  6 13  1  0
  6 14  1  0
  6 15  1  0
M  END
> <Name>
7,292

> <OBJECTID>
9223372608088768523

> <ActiveAidCount>
0

> <AtomChiralCount>
0

> <AtomChiralDefCount>
0

> <AtomChiralUndefCount>
0

> <BondChiralCount>
1

> <BondChiralDefCount>
0

> <BondChiralUndefCount>
1

> <CID>
7292

> <CanonicalSmiles>
CCC(=NO)C

> <Complexity>
58.6

> <CovalentUnitCount>
1

> <CreateDate>
2005/03/26 00:00

> <HeavyAtomCount>
6

> <HydrogenBondAcceptorCount>
2

> <HydrogenBondDonorCount>
1

> <IUPACName>
N-butan-2-ylidenehydroxylamine

> <InChI>
InChI=1S/C4H9NO/c1-3-4(2)5-6/h6H,3H2,1-2H3

> <InChIKey>
WHIVNJATOVLWBW-UHFFFAOYSA-N

> <IsomericSmiles>
CCC(=NO)C

> <IsotopeAtomCount>
0

> <MeSHHeading>
2-butanone oxime

> <MeSHTerm>
2-butanone oxime
MEKO
methylethyl ketoxime

> <MolecularFormula>
C4H9NO

> <MolecularWeight>
87.12

> <RotatableBondCount>
1

> <Smiles>
ON=C(C)CC

> <SourceCategory>
Chemical Vendors
Research and Development
Curation Efforts
Legacy Depositors
Subscription Services
Journal Publishers
Governmental Organizations

> <Synonym>
2-BUTANONE OXIME
Methyl ethyl ketoxime
96-29-7
2-Butanone, oxime
Butanone oxime
Ethyl methyl ketoxime
2-Butanoneoxime
WHIVNJATOVLWBW-UHFFFAOYSA-N
Troykyd anti-skin B
Ethyl methyl ketone oxime
(E)-butan-2-one oxime
DSSTox_CID_1821
USAF AM-3
DSSTox_RID_76348
DSSTox_GSID_21821
2-Butoxime
Methylethylketoxime
NSC 442
Pentan-2-one,oxime
Butan-2-one, oxime
Skino No. 2
CAS-96-29-7
Aron M 1
SKINO 2
2-Butanone, oxime, (E)-
MEK oxime
ethylmethyl-ketoxime
methylethyl ketoxime
butan-2-one oxime
methylethylketone oxime
ACMC-1BQBU
ETHYLMETHYLKETOXIME
AC1L1OFV
2-Butanone, oxime, (Z)-
KSC486O2J
N-butan-2-ylidenehydroxylamine
CHEMBL3181847
DTXSID1021821
CTK0G7034
CTK0G7036
CTK3I6724
10341-63-6
KS-000011OC
Tox21_201706
Tox21_300162
ANW-40802
AKOS017263158
ZINC242701543
TRA0048524
NCGC00254161-01
NCGC00259255-01
AN-42785
B0688
103055-EP2275407A1
103055-EP2301918A1

> <TPSA>
32.6

> <TotalAidCount>
210

> <TotalFormalCharge>
0

> <XLogP>
0.7

> <database>
PubChem Compound

> <matchingCount>
176

> <primaryID>
7292

> <queryTranslation>
7628[CompoundID] OR 244[CompoundID] OR 25059[CompoundID] OR 7618[CompoundID] OR 7641[CompoundID] OR 5053[CompoundID] OR 637511[CompoundID] OR 7714[CompoundID] OR 7762[CompoundID] OR 25429[CompoundID]
OR 8842[CompoundID] OR 7794[CompoundID] OR 637566[CompoundID] OR 7843[CompoundID] OR 174[CompoundID] OR 7870[CompoundID] OR 86102[CompoundID] OR 7888[CompoundID] OR 7896[CompoundID] OR 1140[CompoundID
] OR 8042[CompoundID] OR 8058[CompoundID] OR 8078[CompoundID] OR 8087[CompoundID] OR 8117[CompoundID] OR 8133[CompoundID] OR 115224[CompoundID] OR 8175[CompoundID] OR 8194[CompoundID] OR 445639[Compou
ndID] OR 4944[CompoundID] OR 8294[CompoundID] OR 93541[CompoundID] OR 8360[CompoundID] OR 8363[CompoundID] OR 656612[CompoundID] OR 125098[CompoundID] OR 3352[CompoundID] OR 3303913[CompoundID] OR 648
05[CompoundID] OR 31200[CompoundID] OR 1712058[CompoundID] OR 31236[CompoundID] OR 31239[CompoundID] OR 31265[CompoundID] OR 31266[CompoundID] OR 31276[CompoundID] OR 6950273[CompoundID] OR 518659[Com
poundID] OR 14896[CompoundID] OR 14798[CompoundID] OR 14829[CompoundID] OR 14830[CompoundID] OR 8635[CompoundID] OR 23266[CompoundID] OR 4284[CompoundID] OR 8693[CompoundID] OR 22311[CompoundID] OR 87
59[CompoundID] OR 8785[CompoundID] OR 2723810[CompoundID] OR 8857[CompoundID] OR 3893[CompoundID] OR 9936739[CompoundID] OR 516892[CompoundID] OR 5430[CompoundID] OR 9017[CompoundID] OR 15433[Compound
ID] OR 107720[CompoundID] OR 9552081[CompoundID] OR 164825[CompoundID] OR 10275455[CompoundID] OR 16666[CompoundID] OR 9839306[CompoundID] OR 5282227[CompoundID] OR 23676745[CompoundID] OR 32881[Compo
undID] OR 91581[CompoundID] OR 39800[CompoundID] OR 33344[CompoundID] OR 15962220[CompoundID] OR 33528[CompoundID] OR 5365075[CompoundID] OR 62829[CompoundID] OR 162381[CompoundID] OR 517202[CompoundI
D] OR 6433353[CompoundID] OR 2730[CompoundID] OR 5372405[CompoundID] OR 36081[CompoundID] OR 3120[CompoundID] OR 3017[CompoundID] OR 2969[CompoundID] OR 18827[CompoundID] OR 19518[CompoundID] OR 19658
[CompoundID] OR 38283[CompoundID] OR 2758[CompoundID] OR 10112[CompoundID] OR 10340[CompoundID] OR 712[CompoundID] OR 5794[CompoundID] OR 3347[CompoundID] OR 104150[CompoundID] OR 2912[CompoundID] OR
2450[CompoundID] OR 40326[CompoundID] OR 40585[CompoundID] OR 517055[CompoundID] OR 10913[CompoundID] OR 108242[CompoundID] OR 62097[CompoundID] OR 41679[CompoundID] OR 54680676[CompoundID] OR 62118[C
ompoundID] OR 753[CompoundID] OR 1030[CompoundID] OR 23673837[CompoundID] OR 54678504[CompoundID] OR 11442[CompoundID] OR 11463[CompoundID] OR 22230[CompoundID] OR 440917[CompoundID] OR 6054[CompoundI
D] OR 43234[CompoundID] OR 22629[CompoundID] OR 3039[CompoundID] OR 2735067[CompoundID] OR 6144[CompoundID] OR 702[CompoundID] OR 284[CompoundID] OR 176[CompoundID] OR 91688[CompoundID] OR 22947[Compo
undID] OR 47445[CompoundID] OR 1711973[CompoundID] OR 243[CompoundID] OR 10342051[CompoundID] OR 5281875[CompoundID] OR 3776[CompoundID] OR 6224[CompoundID] OR 104926[CompoundID] OR 8755[CompoundID] O
R 338[CompoundID] OR 123622[CompoundID] OR 23954[CompoundID] OR 6334[CompoundID] OR 2537[CompoundID] OR 24261[CompoundID] OR 23665760[CompoundID] OR 83975[CompoundID] OR 784[CompoundID] OR 24437[Compo
undID] OR 5360315[CompoundID] OR 311[CompoundID] OR 6549[CompoundID] OR 107689[CompoundID] OR 17100[CompoundID] OR 24976875[CompoundID] OR 6654[CompoundID] OR 71245[CompoundID] OR 6442842[CompoundID]
OR 62334[CompoundID] OR 54698175[CompoundID] OR 6328154[CompoundID] OR 24762[CompoundID] OR 440950[CompoundID] OR 7017[CompoundID] OR 5281873[CompoundID] OR 323[CompoundID] OR 5281167[CompoundID] OR 7
175[CompoundID] OR 7292[CompoundID] OR 6335613[CompoundID] OR 7456[CompoundID] OR 7462[CompoundID]

> <resultIndex>
136

> <resultRange>
1-176

> <textQuery>
7628,244,25059,7618,7641,5053,637511,7714,7762,25429,8842,7794,637566,7843,174,7870,86102,7888,7896,1140,8042,8058,8078,8087,8117,8133,115224,8175,8194,445639,4944,8294,93541,8360,8363,656612,125098,3
352,3303913,64805,31200,1712058,31236,31239,31265,31266,31276,6950273,518659,14896,14798,14829,14830,8635,23266,4284,8693,22311,8759,8785,2723810,8857,3893,9936739,516892,5430,9017,15433,107720,955208
1,164825,10275455,16666,9839306,5282227,23676745,32881,91581,39800,33344,15962220,33528,5365075,62829,162381,517202,6433353,2730,5372405,36081,3120,3017,2969,18827,19518,19658,38283,2758,10112,10340,7
12,5794,3347,104150,2912,2450,40326,40585,517055,10913,108242,62097,41679,54680676,62118,753,1030,23673837,54678504,11442,11463,22230,440917,6054,43234,22629,3039,2735067,6144,702,284,176,91688,22947,
47445,1711973,243,10342051,5281875,3776,6224,104926,8755,338,123622,23954,6334,2537,24261,23665760,83975,784,24437,5360315,311,6549,107689,17100,24976875,6654,71245,6442842,62334,54698175,6328154,2476
2,440950,7017,5281873,323,5281167,7175,7292,6335613,7456,7462

$$$$
7,175
  SciTegic10191915303D

 25 25  0  0  0  0            999 V2000
    0.0920    0.9790    0.0000 O   0  0
    2.0980   -0.0210    0.0000 O   0  0
   -1.7460   -5.0590    0.0000 O   0  0
    0.1910   -1.4040    0.0000 C   0  0
    0.8910   -0.0860    0.0000 C   0  0
   -1.2150   -1.4570    0.0000 C   0  0
    0.9360   -2.5980    0.0000 C   0  0
   -1.1290   -3.8950    0.0000 C   0  0
   -1.8710   -2.6990    0.0000 C   0  0
    0.2770   -3.8380    0.0000 C   0  0
    0.8180    2.1990    0.0000 C   0  0
   -0.1600    3.3730    0.0000 C   0  0
    0.5470    4.7310    0.0000 C   0  0
   -1.2230   -5.8710    0.0000 H   0  0
   -1.7970   -0.5470    0.0000 H   0  0
    2.0160   -2.5680    0.0000 H   0  0
   -2.9510   -2.7360    0.0000 H   0  0
    0.8540   -4.7520    0.0000 H   0  0
    1.4470    2.2210    0.8910 H   0  0
    1.4470    2.2210   -0.8880 H   0  0
   -0.8520    3.2990   -0.8380 H   0  0
   -0.8520    3.2990    0.8400 H   0  0
   -0.1800    5.5430   -0.0090 H   0  0
    1.1840    4.8320    0.8790 H   0  0
    1.1780    4.8360   -0.8820 H   0  0
  1  5  1  0
  1 11  1  0
  2  5  2  0
  3  8  1  0
  4  5  1  0
  4  6  2  0
  4  7  1  0
  6  9  1  0
  7 10  2  0
  8  9  2  0
  8 10  1  0
 11 12  1  0
 12 13  1  0
  3 14  1  0
  6 15  1  0
  7 16  1  0
  9 17  1  0
 10 18  1  0
 11 19  1  0
 11 20  1  0
 12 21  1  0
 12 22  1  0
 13 23  1  0
 13 24  1  0
 13 25  1  0
M  END
> <Name>
7,175

> <OBJECTID>
9223372612383735819

> <ActiveAidCount>
31

> <AtomChiralCount>
0

> <AtomChiralDefCount>
0

> <AtomChiralUndefCount>
0

> <BondChiralCount>
0

> <BondChiralDefCount>
0

> <BondChiralUndefCount>
0

> <CID>
7175

> <CanonicalSmiles>
CCCOC(=O)C1=CC=C(C=C1)O

> <Complexity>
160

> <CovalentUnitCount>
1

> <CreateDate>
2005/03/26 00:00

> <HeavyAtomCount>
13

> <HydrogenBondAcceptorCount>
3

> <HydrogenBondDonorCount>
1

> <IUPACName>
propyl 4-hydroxybenzoate

> <InChI>
InChI=1S/C10H12O3/c1-2-7-13-10(12)8-3-5-9(11)6-4-8/h3-6,11H,2,7H2,1H3

> <InChIKey>
QELSKZZBTMNZEB-UHFFFAOYSA-N

> <IsomericSmiles>
CCCOC(=O)C1=CC=C(C=C1)O

> <IsotopeAtomCount>
0

> <MeSHHeading>
propylparaben

> <MeSHTerm>
p-hydroxybenzoic acid propyl ester
propyl p-hydroxybenzoate
Bayer D 206
3(or 4)-hydroxybenzoic acid propyl ester
Nipazol
propyl 4-hydroxybenzoate
propylparaben
4-hydroxybenzoic acid propyl ester
propylparaben, monosodium salt
PEPH

> <MolecularFormula>
C10H12O3

> <MolecularWeight>
180.2

> <PharmAction>
Pharmaceutical Preparations
Preservatives, Pharmaceutical
Specialty Uses of Chemicals
Pharmaceutic Aids
Chemical Actions and Uses

> <RotatableBondCount>
4

> <Smiles>
O(CCC)C(c1ccc(cc1)O)=O

> <SourceCategory>
Chemical Vendors
Legacy Depositors
Research and Development
Curation Efforts
Governmental Organizations
NIH Initiatives
Subscription Services
Journal Publishers

> <Synonym>
Propyl 4-hydroxybenzoate
PROPYLPARABEN
94-13-3
Propyl paraben
4-Hydroxybenzoic acid propyl ester
Propyl p-hydroxybenzoate
Nipasol
Nipazol
Propyl Butex
Betacide P
Propyl parahydroxybenzoate
Propylparasept
Propagin
Chemacide pk
Chemocide pk
n-Propyl 4-hydroxybenzoate
Propyl Parasept
Aseptoform P
Propyl Chemosept
Protaben P
Tegosept P
Propyl aseptoform
Nipagin P
Nipasol P
Solbrol P
N-Propyl p-hydroxybenzoate
Paseptol
p-Hydroxypropyl benzoate
Preserval P
Betacine P
Bonomold OP
Nipasol M
Parasept
p-Hydroxybenzoic acid propyl ester
N-Propylparaben
p-Hydroxybenzoic propyl ester
Propyl-4-hydroxybenzoate
4-Hydroxybenzoic acid, propyl ester
Propyl chemsept
Propyl-paraben
Benzoic acid, 4-hydroxy-, propyl ester
Caswell No. 714
Benzoic acid, p-hydroxy-, propyl ester
FEMA Number 2951
Pulvis conservans (VAN)
UNII-Z8IX2SC1OH
Chemoside PK
Lexgard P
Pulvis conservans
p-Hydroxybenzoic acid, propyl ester
MFCD00002354
FEMA No. 2951
HSDB 203
n-PROPYL-p-HYDROXYBENZOATE
propyl 4-oxidanylbenzoate
p-Oxybenzoesaurepropylester [German]
EINECS 202-307-7
NSC 23515
Z8IX2SC1OH
EPA Pesticide Chemical Code 061203
BRN 1103245
AI3-01341
MLS002152934
CHEBI:32063
Propylester kyseliny p-hydroxybenzoove [Czech]
4-Hydroxybenzoic acid propylester
QELSKZZBTMNZEB-UHFFFAOYSA-N
NSC23515
p-Hydroxybenzoic acid n-propyl ester
NCGC00090965-03
NCGC00090965-04
SMR000112070
DSSTox_CID_2527
WLN: QR DVO3
DSSTox_RID_76614
DSSTox_GSID_22527
Propyl 4-hydroxybenzoate, 99+%
Propyl 4-hydroxybenzoate, >=99%
Bayer D 206
n-propyl paraben
CAS-94-13-3
Propylparaben [USAN]
p-Oxybenzoesaurepropylester
Propylparaben [USAN:NF]
Propylparaben (NF)
Propylester kyseliny p-hydroxybenzoove
Propylparaben, USAN
ACMC-209rqc
85403-59-4
Propylis parahydroxybenzoas
propyl para-hydroxybenzoate
SCHEMBL977
p-Oxybenzoesaeurepropylester
EC 202-307-7
AC1L1O6G
cid_7175
n-propyl-p-hydroxy-benzoate
4-10-00-00374 (Beilstein Handbook Reference)
KSC489Q5P
MLS002222346
MLS006011654
BIDD:ER0229
Propyl-4-Hydroxybenzoate,(S)
CHEMBL194014
Propyl parahydroxybenzoate (TN)
DTXSID4022527
BDBM70190
CTK3I9857
KS-00000GZK
NSC8511
4-Hydroxybenzoic acid-propyl ester
Aa(2) (1/2)eth+/-uo yen
HMS2268K21
Propyl 4-hydroxybenzoate, BioXtra
Propyl parahydroxybenzoate (JP17)
HY-N2026
NSC-8511
PROPYL PARA HYDROXY BENZOATE
ZINC1586788
Tox21_111048
Tox21_400012
4-hydroxybenzoic acid n-propyl ester
ANW-40210
BBL023754
NSC-23515
SBB015060
STL294815
4-Hydroxybenzoic acid, n-propyl ester
AKOS008948099
component of Heb-Cort MC (Salt/Mix)
DS-3427
LS-1958
MCULE-6661199693
RTR-029455
TRA0042844
NCGC00090965-01
NCGC00090965-02
NCGC00090965-05
NCGC00090965-06
AJ-27593
AK106260
AN-24280
CJ-05551
CJ-25317
E216
K713
ST075003
TR-029455
CS-0018518
FT-0618698
P1955
ST24049048
T8305
D01422
A844839
Propyl 4-hydroxybenzoate, p.a., 99.0-100.5%
Propyl Parahydroxybenzoate 0.01 mg/ml in Methanol
Propyl Parahydroxybenzoate 1.0 mg/ml in Methanol
4-Arm PEG-OMs, 95%, average M.W. 20,000
I01-7012
Q-201635
paragraph signOoC>>u degrees (2)I centIaEa+/-uo yen
Propyl 4-hydroxybenzoate, SAJ first grade, >=98.0%
Propyl 4-hydroxybenzoate, tested according to Ph.Eur.
Propyl 4-hydroxybenzoate, Vetec(TM) reagent grade, 98%
Propylparaben, certified reference material, TraceCERT(R)
UNII-AZF98361GV component QELSKZZBTMNZEB-UHFFFAOYSA-N
Propylparaben, United States Pharmacopeia (USP) Reference Standard
Propyl parahydroxybenzoate, European Pharmacopoeia (EP) Reference Standard
Propylparaben, Pharmaceutical Secondary Standard; Certified Reference Material
36M
4-Hydroxybenzoes?urepropylesterpropyl parabenpropyl p-hydroxybenzoatepropyl parahydroxybenzoatenipasolE216
InChI=1/C10H12O3/c1-2-7-13-10(12)8-3-5-9(11)6-4-8/h3-6,11H,2,7H2,1H

> <TPSA>
46.5

> <TotalAidCount>
873

> <TotalFormalCharge>
0

> <XLogP>
3

> <database>
PubChem Compound

> <matchingCount>
176

> <primaryID>
7175

> <queryTranslation>
7628[CompoundID] OR 244[CompoundID] OR 25059[CompoundID] OR 7618[CompoundID] OR 7641[CompoundID] OR 5053[CompoundID] OR 637511[CompoundID] OR 7714[CompoundID] OR 7762[CompoundID] OR 25429[CompoundID]
OR 8842[CompoundID] OR 7794[CompoundID] OR 637566[CompoundID] OR 7843[CompoundID] OR 174[CompoundID] OR 7870[CompoundID] OR 86102[CompoundID] OR 7888[CompoundID] OR 7896[CompoundID] OR 1140[CompoundID
] OR 8042[CompoundID] OR 8058[CompoundID] OR 8078[CompoundID] OR 8087[CompoundID] OR 8117[CompoundID] OR 8133[CompoundID] OR 115224[CompoundID] OR 8175[CompoundID] OR 8194[CompoundID] OR 445639[Compou
ndID] OR 4944[CompoundID] OR 8294[CompoundID] OR 93541[CompoundID] OR 8360[CompoundID] OR 8363[CompoundID] OR 656612[CompoundID] OR 125098[CompoundID] OR 3352[CompoundID] OR 3303913[CompoundID] OR 648
05[CompoundID] OR 31200[CompoundID] OR 1712058[CompoundID] OR 31236[CompoundID] OR 31239[CompoundID] OR 31265[CompoundID] OR 31266[CompoundID] OR 31276[CompoundID] OR 6950273[CompoundID] OR 518659[Com
poundID] OR 14896[CompoundID] OR 14798[CompoundID] OR 14829[CompoundID] OR 14830[CompoundID] OR 8635[CompoundID] OR 23266[CompoundID] OR 4284[CompoundID] OR 8693[CompoundID] OR 22311[CompoundID] OR 87
59[CompoundID] OR 8785[CompoundID] OR 2723810[CompoundID] OR 8857[CompoundID] OR 3893[CompoundID] OR 9936739[CompoundID] OR 516892[CompoundID] OR 5430[CompoundID] OR 9017[CompoundID] OR 15433[Compound
ID] OR 107720[CompoundID] OR 9552081[CompoundID] OR 164825[CompoundID] OR 10275455[CompoundID] OR 16666[CompoundID] OR 9839306[CompoundID] OR 5282227[CompoundID] OR 23676745[CompoundID] OR 32881[Compo
undID] OR 91581[CompoundID] OR 39800[CompoundID] OR 33344[CompoundID] OR 15962220[CompoundID] OR 33528[CompoundID] OR 5365075[CompoundID] OR 62829[CompoundID] OR 162381[CompoundID] OR 517202[CompoundI
D] OR 6433353[CompoundID] OR 2730[CompoundID] OR 5372405[CompoundID] OR 36081[CompoundID] OR 3120[CompoundID] OR 3017[CompoundID] OR 2969[CompoundID] OR 18827[CompoundID] OR 19518[CompoundID] OR 19658
[CompoundID] OR 38283[CompoundID] OR 2758[CompoundID] OR 10112[CompoundID] OR 10340[CompoundID] OR 712[CompoundID] OR 5794[CompoundID] OR 3347[CompoundID] OR 104150[CompoundID] OR 2912[CompoundID] OR
2450[CompoundID] OR 40326[CompoundID] OR 40585[CompoundID] OR 517055[CompoundID] OR 10913[CompoundID] OR 108242[CompoundID] OR 62097[CompoundID] OR 41679[CompoundID] OR 54680676[CompoundID] OR 62118[C
ompoundID] OR 753[CompoundID] OR 1030[CompoundID] OR 23673837[CompoundID] OR 54678504[CompoundID] OR 11442[CompoundID] OR 11463[CompoundID] OR 22230[CompoundID] OR 440917[CompoundID] OR 6054[CompoundI
D] OR 43234[CompoundID] OR 22629[CompoundID] OR 3039[CompoundID] OR 2735067[CompoundID] OR 6144[CompoundID] OR 702[CompoundID] OR 284[CompoundID] OR 176[CompoundID] OR 91688[CompoundID] OR 22947[Compo
undID] OR 47445[CompoundID] OR 1711973[CompoundID] OR 243[CompoundID] OR 10342051[CompoundID] OR 5281875[CompoundID] OR 3776[CompoundID] OR 6224[CompoundID] OR 104926[CompoundID] OR 8755[CompoundID] O
R 338[CompoundID] OR 123622[CompoundID] OR 23954[CompoundID] OR 6334[CompoundID] OR 2537[CompoundID] OR 24261[CompoundID] OR 23665760[CompoundID] OR 83975[CompoundID] OR 784[CompoundID] OR 24437[Compo
undID] OR 5360315[CompoundID] OR 311[CompoundID] OR 6549[CompoundID] OR 107689[CompoundID] OR 17100[CompoundID] OR 24976875[CompoundID] OR 6654[CompoundID] OR 71245[CompoundID] OR 6442842[CompoundID]
OR 62334[CompoundID] OR 54698175[CompoundID] OR 6328154[CompoundID] OR 24762[CompoundID] OR 440950[CompoundID] OR 7017[CompoundID] OR 5281873[CompoundID] OR 323[CompoundID] OR 5281167[CompoundID] OR 7
175[CompoundID] OR 7292[CompoundID] OR 6335613[CompoundID] OR 7456[CompoundID] OR 7462[CompoundID]

> <resultIndex>
137

> <resultRange>
1-176

> <textQuery>
7628,244,25059,7618,7641,5053,637511,7714,7762,25429,8842,7794,637566,7843,174,7870,86102,7888,7896,1140,8042,8058,8078,8087,8117,8133,115224,8175,8194,445639,4944,8294,93541,8360,8363,656612,125098,3
352,3303913,64805,31200,1712058,31236,31239,31265,31266,31276,6950273,518659,14896,14798,14829,14830,8635,23266,4284,8693,22311,8759,8785,2723810,8857,3893,9936739,516892,5430,9017,15433,107720,955208
1,164825,10275455,16666,9839306,5282227,23676745,32881,91581,39800,33344,15962220,33528,5365075,62829,162381,517202,6433353,2730,5372405,36081,3120,3017,2969,18827,19518,19658,38283,2758,10112,10340,7
12,5794,3347,104150,2912,2450,40326,40585,517055,10913,108242,62097,41679,54680676,62118,753,1030,23673837,54678504,11442,11463,22230,440917,6054,43234,22629,3039,2735067,6144,702,284,176,91688,22947,
47445,1711973,243,10342051,5281875,3776,6224,104926,8755,338,123622,23954,6334,2537,24261,23665760,83975,784,24437,5360315,311,6549,107689,17100,24976875,6654,71245,6442842,62334,54698175,6328154,2476
2,440950,7017,5281873,323,5281167,7175,7292,6335613,7456,7462

$$$$
7,017
  SciTegic10191915303D

 23 24  0  0  0  0            999 V2000
   -0.9240    1.3610   -1.7010 O   0  0
    0.0350    1.5610   -0.8180 C   0  0
    0.7090    2.7950   -0.7990 C   0  0
    1.7340    3.0310    0.1310 C   0  0
    2.0920    2.0290    1.0510 C   0  0
    1.4240    0.7930    1.0370 C   0  0
    0.3960    0.5550    0.1060 C   0  0
   -0.2870   -0.7340    0.1060 C   0  0
   -1.6930   -0.7870    0.1060 C   0  0
   -2.3520   -2.0290    0.1060 C   0  0
   -1.6050   -3.2210    0.1060 C   0  0
   -0.2010   -3.1700    0.1060 C   0  0
    0.4590   -1.9280    0.1060 C   0  0
   -1.1480    2.0660   -2.3220 H   0  0
    0.4380    3.5660   -1.5040 H   0  0
    2.2460    3.9810    0.1410 H   0  0
    2.8790    2.2110    1.7660 H   0  0
    1.7110    0.0350    1.7520 H   0  0
   -2.2830    0.1190    0.1060 H   0  0
   -3.4300   -2.0680    0.1060 H   0  0
   -2.1110   -4.1760    0.1060 H   0  0
    0.3730   -4.0840    0.1060 H   0  0
    1.5390   -1.9060    0.1060 H   0  0
  1  2  1  0
  2  3  2  0
  2  7  1  0
  3  4  1  0
  4  5  2  0
  5  6  1  0
  6  7  2  0
  7  8  1  0
  8  9  2  0
  8 13  1  0
  9 10  1  0
 10 11  2  0
 11 12  1  0
 12 13  2  0
  1 14  1  0
  3 15  1  0
  4 16  1  0
  5 17  1  0
  6 18  1  0
  9 19  1  0
 10 20  1  0
 11 21  1  0
 12 22  1  0
 13 23  1  0
M  END
> <Name>
7,017

> <OBJECTID>
9223372616678703115

> <ActiveAidCount>
21

> <AtomChiralCount>
0

> <AtomChiralDefCount>
0

> <AtomChiralUndefCount>
0

> <BondChiralCount>
0

> <BondChiralDefCount>
0

> <BondChiralUndefCount>
0

> <CID>
7017

> <CanonicalSmiles>
C1=CC=C(C=C1)C2=CC=CC=C2O

> <Complexity>
149

> <CovalentUnitCount>
1

> <CreateDate>
2004/09/16 00:00

> <HeavyAtomCount>
13

> <HydrogenBondAcceptorCount>
1

> <HydrogenBondDonorCount>
1

> <IUPACName>
2-phenylphenol

> <InChI>
InChI=1S/C12H10O/c13-12-9-5-4-8-11(12)10-6-2-1-3-7-10/h1-9,13H

> <InChIKey>
LLEMOWNGBBNAJR-UHFFFAOYSA-N

> <IsomericSmiles>
C1=CC=C(C=C1)C2=CC=CC=C2O

> <IsotopeAtomCount>
0

> <MeSHHeading>
2-phenylphenol

> <MeSHTerm>
Dowicide
sodium ortho-phenylphenol
2-phenylphenol
sodium ortho-phenylphenate
o-phenylphenol
sodium o-phenylphenoate
Lyorthol
2-hydroxydiphenyl
ortho-phenylphenate
o-phenylphenate
2-hydroxybiphenyl
2-phenylphenol sodium
orthophenylphenol

> <MolecularFormula>
C12H10O

> <MolecularWeight>
170.21

> <PharmAction>
Fungicides, Industrial
Disinfectants
Noxae
Pharmacologic Actions
Anti-Infective Agents
Toxic Actions
Specialty Uses of Chemicals
Chemical Actions and Uses
Agrochemicals
Pesticides
Therapeutic Uses
Carcinogens

> <RotatableBondCount>
1

> <Smiles>
Oc1c(c2ccccc2)cccc1

> <SourceCategory>
Chemical Vendors
Legacy Depositors
Research and Development
Curation Efforts
Governmental Organizations
NIH Initiatives
Subscription Services
Journal Publishers

> <Synonym>
2-Phenylphenol
2-Hydroxybiphenyl
90-43-7
Biphenyl-2-ol
O-PHENYLPHENOL
2-Biphenylol
o-Hydroxybiphenyl
2-Hydroxydiphenyl
o-Hydroxydiphenyl
Phenylphenol
Biphenylol
[1,1'-Biphenyl]-2-ol
o-Phenyl phenol
Orthoxenol
o-Diphenylol
Torsite
Orthophenylphenol
o-Xenol
Dowicide 1
o-Biphenylol
Orthohydroxydiphenyl
Nectryl
Tumescal OPE
ortho-Phenylphenol
Preventol O extra
Remol TRF
Phenol, o-phenyl-
Tetrosin oe
1-Hydroxy-2-phenylbenzene
2-Fenylfenol
2-Hydroxybifenyl
o-Xonal
2-Phenyl phenol
Biphenyl, 2-hydroxy-
Invalon OP
Anthrapole 73
2-hydroxy biphenyl
Usaf ek-2219
1,1'-Biphenyl-2-ol
Dowicide
Kiwi lustr 277
Hydroxdiphenyl
(1,1-Biphenyl)-2-ol
o-phenylphenate
(1,1'-Biphenyl)-2-ol
o-Phenylphenol, cosmetic grade
Phenyl-2 phenol
Dowicide 1 antimicrobial
Orthophenyl phenol
ortho-phenylphenate
orthohydroxydipbenyl
Biphenyl-2-o1
NCI-C50351
Hydroxybiphenyl
2-Fenylfenol [Czech]
Hydroxy-2-phenylbenzene
Caswell No. 623AA
2-Hydroxybifenyl [Czech]
2-phenyl-phenol
Nipacide OPP
NSC 1548
2-Phenylphenol [BSI:ISO]
UNII-D343Z75HT8
CCRIS 1388
Phenyl-2 phenol [ISO-French]
HSDB 1753
C12H10O
LLEMOWNGBBNAJR-UHFFFAOYSA-N
EINECS 201-993-5
MFCD00002208
EPA Pesticide Chemical Code 064103
2-Hydroxy-1,1'-biphenyl
BRN 0606907
AI3-00062
CHEMBL108829
CHEBI:17043
D343Z75HT8
Dowicide A
E231
2-HYDROXYBIPHENYL (2-PHENYLPHENOL)
2-Phenylphenol, 99+%
DSSTox_CID_1151
DSSTox_RID_75978
DSSTox_GSID_21151
Lyorthol
Tumescal 0PE
CAS-90-43-7
OPP [pesticide]
sodium o-phenylphenoate
sodium ortho-phenylphenol
Stellisept
Manusept
Rotoline
Xenol
o-phenyl-phenol
Tetrosin OE-N
EINECS 262-974-5
Amocid (TN)
Preventol 3041
(1,1'-Biphenyl)-2-ol, chlorinated
PubChem8909
2-Phenylphenol; OPP
Phenylphenol (ortho-)
2-Phenylphenol, 99%
AC1L1NTD
OPP?
Hydroxy-2-ph enylbenzene
ACMC-1BW0D
WLN: QR BR
EC 201-993-5
2-Phenylphenol, BSI, ISO
SCHEMBL29811
4-06-00-04579 (Beilstein Handbook Reference)
KSC175S4N
MLS002415765
BIDD:ER0664
[1,1''-biphenyl]-2-ol
AC1Q7B40
DTXSID2021151
FEMA 3959
KS-00000UUP
2-Phenylphenol, >=99%, FG
NSC1548
ZINC968134
AC1Q7889
NSC-1548
STR07240
Tox21_202415
Tox21_300674
ANW-75569
BBL022484
BDBM50308551
FC0776
SBB060430
STK177354
AKOS000118750
LS-1912
LS10222
MCULE-6514278919
PS-8698
RP23250
RTR-030950
NCGC00091595-01
NCGC00091595-02
NCGC00091595-03
NCGC00091595-04
NCGC00091595-05
NCGC00091595-06
NCGC00254582-01
NCGC00259964-01
2-Phenylphenol 100 microg/mL in Acetone
61788-42-9
AC-10362
AJ-24576
AN-23068
AN-24194
SMR000778031
ZB015519
2-Phenylphenol 10 microg/mL in Cyclohexane
TR-030950
2-Phenylphenol 10 microg/mL in Acetonitrile
BB 0223993
FT-0654846
H2987
P0200
ST24022380
ST50406167
TL80073605
1,1'-BIPHENYL-2-OL; 2-PHENYLPHENOL
C02499
D08367
2-Phenylphenol, PESTANAL(R), analytical standard
SR-01000944520
SR-01000944520-1
W-100332
F0001-2206
Z1262254253
UNII-9P55LV4O0G component LLEMOWNGBBNAJR-UHFFFAOYSA-N
InChI=1/C12H10O/c13-12-9-5-4-8-11(12)10-6-2-1-3-7-10/h1-9,13
CH9

> <TPSA>
20.2

> <TotalAidCount>
398

> <TotalFormalCharge>
0

> <XLogP>
3.1

> <database>
PubChem Compound

> <matchingCount>
176

> <primaryID>
7017

> <queryTranslation>
7628[CompoundID] OR 244[CompoundID] OR 25059[CompoundID] OR 7618[CompoundID] OR 7641[CompoundID] OR 5053[CompoundID] OR 637511[CompoundID] OR 7714[CompoundID] OR 7762[CompoundID] OR 25429[CompoundID]
OR 8842[CompoundID] OR 7794[CompoundID] OR 637566[CompoundID] OR 7843[CompoundID] OR 174[CompoundID] OR 7870[CompoundID] OR 86102[CompoundID] OR 7888[CompoundID] OR 7896[CompoundID] OR 1140[CompoundID
] OR 8042[CompoundID] OR 8058[CompoundID] OR 8078[CompoundID] OR 8087[CompoundID] OR 8117[CompoundID] OR 8133[CompoundID] OR 115224[CompoundID] OR 8175[CompoundID] OR 8194[CompoundID] OR 445639[Compou
ndID] OR 4944[CompoundID] OR 8294[CompoundID] OR 93541[CompoundID] OR 8360[CompoundID] OR 8363[CompoundID] OR 656612[CompoundID] OR 125098[CompoundID] OR 3352[CompoundID] OR 3303913[CompoundID] OR 648
05[CompoundID] OR 31200[CompoundID] OR 1712058[CompoundID] OR 31236[CompoundID] OR 31239[CompoundID] OR 31265[CompoundID] OR 31266[CompoundID] OR 31276[CompoundID] OR 6950273[CompoundID] OR 518659[Com
poundID] OR 14896[CompoundID] OR 14798[CompoundID] OR 14829[CompoundID] OR 14830[CompoundID] OR 8635[CompoundID] OR 23266[CompoundID] OR 4284[CompoundID] OR 8693[CompoundID] OR 22311[CompoundID] OR 87
59[CompoundID] OR 8785[CompoundID] OR 2723810[CompoundID] OR 8857[CompoundID] OR 3893[CompoundID] OR 9936739[CompoundID] OR 516892[CompoundID] OR 5430[CompoundID] OR 9017[CompoundID] OR 15433[Compound
ID] OR 107720[CompoundID] OR 9552081[CompoundID] OR 164825[CompoundID] OR 10275455[CompoundID] OR 16666[CompoundID] OR 9839306[CompoundID] OR 5282227[CompoundID] OR 23676745[CompoundID] OR 32881[Compo
undID] OR 91581[CompoundID] OR 39800[CompoundID] OR 33344[CompoundID] OR 15962220[CompoundID] OR 33528[CompoundID] OR 5365075[CompoundID] OR 62829[CompoundID] OR 162381[CompoundID] OR 517202[CompoundI
D] OR 6433353[CompoundID] OR 2730[CompoundID] OR 5372405[CompoundID] OR 36081[CompoundID] OR 3120[CompoundID] OR 3017[CompoundID] OR 2969[CompoundID] OR 18827[CompoundID] OR 19518[CompoundID] OR 19658
[CompoundID] OR 38283[CompoundID] OR 2758[CompoundID] OR 10112[CompoundID] OR 10340[CompoundID] OR 712[CompoundID] OR 5794[CompoundID] OR 3347[CompoundID] OR 104150[CompoundID] OR 2912[CompoundID] OR
2450[CompoundID] OR 40326[CompoundID] OR 40585[CompoundID] OR 517055[CompoundID] OR 10913[CompoundID] OR 108242[CompoundID] OR 62097[CompoundID] OR 41679[CompoundID] OR 54680676[CompoundID] OR 62118[C
ompoundID] OR 753[CompoundID] OR 1030[CompoundID] OR 23673837[CompoundID] OR 54678504[CompoundID] OR 11442[CompoundID] OR 11463[CompoundID] OR 22230[CompoundID] OR 440917[CompoundID] OR 6054[CompoundI
D] OR 43234[CompoundID] OR 22629[CompoundID] OR 3039[CompoundID] OR 2735067[CompoundID] OR 6144[CompoundID] OR 702[CompoundID] OR 284[CompoundID] OR 176[CompoundID] OR 91688[CompoundID] OR 22947[Compo
undID] OR 47445[CompoundID] OR 1711973[CompoundID] OR 243[CompoundID] OR 10342051[CompoundID] OR 5281875[CompoundID] OR 3776[CompoundID] OR 6224[CompoundID] OR 104926[CompoundID] OR 8755[CompoundID] O
R 338[CompoundID] OR 123622[CompoundID] OR 23954[CompoundID] OR 6334[CompoundID] OR 2537[CompoundID] OR 24261[CompoundID] OR 23665760[CompoundID] OR 83975[CompoundID] OR 784[CompoundID] OR 24437[Compo
undID] OR 5360315[CompoundID] OR 311[CompoundID] OR 6549[CompoundID] OR 107689[CompoundID] OR 17100[CompoundID] OR 24976875[CompoundID] OR 6654[CompoundID] OR 71245[CompoundID] OR 6442842[CompoundID]
OR 62334[CompoundID] OR 54698175[CompoundID] OR 6328154[CompoundID] OR 24762[CompoundID] OR 440950[CompoundID] OR 7017[CompoundID] OR 5281873[CompoundID] OR 323[CompoundID] OR 5281167[CompoundID] OR 7
175[CompoundID] OR 7292[CompoundID] OR 6335613[CompoundID] OR 7456[CompoundID] OR 7462[CompoundID]

> <resultIndex>
138

> <resultRange>
1-176

> <textQuery>
7628,244,25059,7618,7641,5053,637511,7714,7762,25429,8842,7794,637566,7843,174,7870,86102,7888,7896,1140,8042,8058,8078,8087,8117,8133,115224,8175,8194,445639,4944,8294,93541,8360,8363,656612,125098,3
352,3303913,64805,31200,1712058,31236,31239,31265,31266,31276,6950273,518659,14896,14798,14829,14830,8635,23266,4284,8693,22311,8759,8785,2723810,8857,3893,9936739,516892,5430,9017,15433,107720,955208
1,164825,10275455,16666,9839306,5282227,23676745,32881,91581,39800,33344,15962220,33528,5365075,62829,162381,517202,6433353,2730,5372405,36081,3120,3017,2969,18827,19518,19658,38283,2758,10112,10340,7
12,5794,3347,104150,2912,2450,40326,40585,517055,10913,108242,62097,41679,54680676,62118,753,1030,23673837,54678504,11442,11463,22230,440917,6054,43234,22629,3039,2735067,6144,702,284,176,91688,22947,
47445,1711973,243,10342051,5281875,3776,6224,104926,8755,338,123622,23954,6334,2537,24261,23665760,83975,784,24437,5360315,311,6549,107689,17100,24976875,6654,71245,6442842,62334,54698175,6328154,2476
2,440950,7017,5281873,323,5281167,7175,7292,6335613,7456,7462

$$$$
6,654
  SciTegic10191915303D

 26 27  0  0  1  0            999 V2000
    0.6840   -0.7990   -0.3300 C   0  0
    0.6780    0.6370    0.2890 C   0  0  3  0  0  0
   -0.2110   -1.1620    0.8980 C   0  0  3  0  0  0
    0.6460   -0.1090    1.6500 C   0  0
   -0.6390    1.3890    0.0470 C   0  0
   -1.6820   -0.7110    0.7620 C   0  0
   -1.7870    0.7230    0.2790 C   0  0
    0.0060   -0.9280   -1.6910 C   0  0
    2.0530   -1.4820   -0.3550 C   0  0
   -0.6410    2.8160   -0.4340 C   0  0
    1.5760    1.2290    0.1070 H   0  0
   -0.1000   -2.1840    1.2640 H   0  0
    0.1660    0.4080    2.4820 H   0  0
    1.6090   -0.4530    2.0370 H   0  0
   -2.1860   -0.8010    1.7250 H   0  0
   -2.2110   -1.3650    0.0680 H   0  0
   -2.7520    1.1840    0.1310 H   0  0
   -0.9860   -0.4790   -1.6970 H   0  0
   -0.1040   -1.9770   -1.9690 H   0  0
    0.5980   -0.4390   -2.4650 H   0  0
    2.5640   -1.4040    0.6040 H   0  0
    2.6930   -1.0350   -1.1130 H   0  0
    1.9490   -2.5430   -0.5920 H   0  0
   -1.5590    3.3110   -0.1150 H   0  0
    0.2420    3.3340   -0.0610 H   0  0
   -0.6080    2.8420   -1.5220 H   0  0
  1  2  1  0
  1  3  1  0
  1  8  1  0
  1  9  1  0
  2  4  1  0
  2  5  1  0
  3  4  1  0
  3  6  1  0
  5  7  2  0
  5 10  1  0
  6  7  1  0
  2 11  1  0
  3 12  1  0
  4 13  1  0
  4 14  1  0
  6 15  1  0
  6 16  1  0
  7 17  1  0
  8 18  1  0
  8 19  1  0
  8 20  1  0
  9 21  1  0
  9 22  1  0
  9 23  1  0
 10 24  1  0
 10 25  1  0
 10 26  1  0
M  END
> <Name>
6,654

> <OBJECTID>
9223372620973670411

> <ActiveAidCount>
0

> <AtomChiralCount>
2

> <AtomChiralDefCount>
0

> <AtomChiralUndefCount>
2

> <BondChiralCount>
0

> <BondChiralDefCount>
0

> <BondChiralUndefCount>
0

> <CID>
6654

> <CanonicalSmiles>
CC1=CCC2CC1C2(C)C

> <Complexity>
186

> <CovalentUnitCount>
1

> <CreateDate>
2004/09/16 00:00

> <HeavyAtomCount>
10

> <HydrogenBondAcceptorCount>
0

> <HydrogenBondDonorCount>
0

> <IUPACName>
2,6,6-trimethylbicyclo[3.1.1]hept-2-ene

> <InChI>
InChI=1S/C10H16/c1-7-4-5-8-6-9(7)10(8,2)3/h4,8-9H,5-6H2,1-3H3

> <InChIKey>
GRWFGVWFFZKLTI-UHFFFAOYSA-N

> <IsomericSmiles>
CC1=CCC2CC1C2(C)C

> <IsotopeAtomCount>
0

> <MeSHHeading>
alpha-pinene

> <MeSHTerm>
alpha-pinene, pinene
2-pinene
alpha-pinene
Wilt Pruf

> <MolecularFormula>
C10H16

> <MolecularWeight>
136.23

> <RotatableBondCount>
0

> <Smiles>
C1(C)(C)C(CC=C(C)C12)C2

> <SourceCategory>
Legacy Depositors
Chemical Vendors
Research and Development
Curation Efforts
Governmental Organizations
NIH Initiatives
Subscription Services
Journal Publishers

> <Synonym>
ALPHA-PINENE
2-Pinene
80-56-8
Acintene A
.alpha.-Pinene
2,6,6-Trimethylbicyclo[3.1.1]hept-2-ene
Pinene isomer
PINENE, ALPHA
pin-2(3)-ene
Bicyclo[3.1.1]hept-2-ene, 2,6,6-trimethyl-
(+)-a-Pinene
NSC 7727
(+/-)-2-Pinene
4,6,6-trimethylbicyclo[3.1.1]hept-3-ene
CHEBI:36740
GRWFGVWFFZKLTI-UHFFFAOYSA-N
2,6,6-Trimethylbicyclo(3.1.1)-2-hept-2-ene
NSC94522
NSC94523
NCGC00090682-01
alpha-Pinene (natural)
FEMA Number 2902
2,6,6-Trimethylbicyclo(3.1.1)hept-2-ene
DSSTox_CID_6501
DSSTox_RID_78126
Bicyclo(3.1.1)hept-2-ene, 2,6,6-trimethyl-
DSSTox_GSID_26501
(1R)-2,6,6-Trimethylbicyclo[3.1.1]hept-2-ene
CCRIS 697
FEMA No. 2902
HSDB 720
EINECS 201-291-9
EINECS 219-445-9
UN2368
alpha-Pinene(dextro)
Wilt Pruf
1S-.alpha.-Pinene
2437-95-8
BRN 3194807
CAS-80-56-8
1R-(+)-a-pinene
Phosphosulfurized alpha-pinene
AI3-24594
alpha-pinene, pinene
DL-Pin-2(3)-ene
4,6,6-Trimethylbicyklo(3,1,1)hept-3-en
2,6,6-trimethyl-Bicyclo(3.1.1)hept-2-ene
2,6,6-trimethyl-bicyclo[3.1.1]hept-2-ene
Bicyclo(3.1.1)hept-2-ene, 2,6,6-trimethyl
(1S)-2,6,6-Trimethylbicyclo[3.1.1]hept-2-ene
(+)-Pin-2(3)-ene
alpha-Pinene, 97%, stabilized with alpha-Tocopherol
4,6,6-Trimethylbicyklo(3,1,1)hept-3-en [Czech]
alphapinene
alpha pinene
alpha-Pinene, phosphosulfurized
Cyclic dexadiene
alpha.-pinene
Sylvapine A
2-Pinene, (1S,5S)-(-)-
Acitene A
Alpha Pinene PF
1R-alpha-Pinene
L-a-Pinene
Pinene, .alpha.
pin-2-ene
1R-a-Pinene
1S-a-Pinene
alpha [D] Pinene
alpha [L] Pinene
EINECS 267-032-7
(-)-a-pinene
(+-)-alpha-pinene
1R-.alpha.-Pinene
(R)-.alpha.-Pinene
(+/-)-alpha-Pinene
1S-(-)-a-Pinene
1R-(+)-alpha-pinene
(+-)-2-pinene
AC1L1N0D
(1R)-(+)-a-Pinene
(1S)-(-)-a-Pinene
PINENE, ALPHA (D)
PINENE, ALPHA (L)
1S,5S-(-)-alpha-Pinene
25766-18-1
67762-73-6
(.+/-.)-.alpha.-Pinene
CHEMBL442565
DTXSID4026501
CTK5E7908
NSC7727
alpha-Pinene, phosphorus pentasulfide reaction product (4:1)
Bicyclo(3.1.1)hept-2-ene, 2,6,6-trimethyl-, homopolymer
alpha-Pinene (+/-)-alpha-Pinene
Bicyclo(3.1.1)hept-2-ene, 2,6,6-trimethyl-, phosphosulfurized
NSC-7727
Tox21_110996
Tox21_200108
Tox21_303385
NSC-94522
NSC-94523
PC 500
SBB060477
AKOS000121239
LS-2348
MCULE-3589656574
UN 2368
NCGC00090682-02
NCGC00257379-01
NCGC00257662-01
AN-19420
AN-19426
AN-42193
SC-18193
2,6-Trimethylbicyclo[3.1.1]-2-heptene
2,6,6-Trimethylbicyclo[3.1.1]-2-heptene
alpha-Pinene [UN2368] [Flammable liquid]
alpha-Pinene 1000 microg/mL in Isopropanol
Bicyclo[3.1.1]hept-2-ene,6,6-trimethyl-
FT-0622197
FT-0698080
ST51046656
2,6-Trimethylbicyclo[3.1.1]-2-hept-2-ene
2,6,6-Trimethyl bicyclo-(3,1,1)-2 heptene
Bicyclo[3.1.1]hept-2-ene,2,6,6-trimethyl-
C09880
Q-201582
Bicyclo[3.1.1]hept-2-ene, 2,6,6-trimethyl-, (.+/-.)-

> <TPSA>
0

> <TotalAidCount>
465

> <TotalFormalCharge>
0

> <XLogP>
2.8

> <database>
PubChem Compound

> <matchingCount>
176

> <primaryID>
6654

> <queryTranslation>
7628[CompoundID] OR 244[CompoundID] OR 25059[CompoundID] OR 7618[CompoundID] OR 7641[CompoundID] OR 5053[CompoundID] OR 637511[CompoundID] OR 7714[CompoundID] OR 7762[CompoundID] OR 25429[CompoundID]
OR 8842[CompoundID] OR 7794[CompoundID] OR 637566[CompoundID] OR 7843[CompoundID] OR 174[CompoundID] OR 7870[CompoundID] OR 86102[CompoundID] OR 7888[CompoundID] OR 7896[CompoundID] OR 1140[CompoundID
] OR 8042[CompoundID] OR 8058[CompoundID] OR 8078[CompoundID] OR 8087[CompoundID] OR 8117[CompoundID] OR 8133[CompoundID] OR 115224[CompoundID] OR 8175[CompoundID] OR 8194[CompoundID] OR 445639[Compou
ndID] OR 4944[CompoundID] OR 8294[CompoundID] OR 93541[CompoundID] OR 8360[CompoundID] OR 8363[CompoundID] OR 656612[CompoundID] OR 125098[CompoundID] OR 3352[CompoundID] OR 3303913[CompoundID] OR 648
05[CompoundID] OR 31200[CompoundID] OR 1712058[CompoundID] OR 31236[CompoundID] OR 31239[CompoundID] OR 31265[CompoundID] OR 31266[CompoundID] OR 31276[CompoundID] OR 6950273[CompoundID] OR 518659[Com
poundID] OR 14896[CompoundID] OR 14798[CompoundID] OR 14829[CompoundID] OR 14830[CompoundID] OR 8635[CompoundID] OR 23266[CompoundID] OR 4284[CompoundID] OR 8693[CompoundID] OR 22311[CompoundID] OR 87
59[CompoundID] OR 8785[CompoundID] OR 2723810[CompoundID] OR 8857[CompoundID] OR 3893[CompoundID] OR 9936739[CompoundID] OR 516892[CompoundID] OR 5430[CompoundID] OR 9017[CompoundID] OR 15433[Compound
ID] OR 107720[CompoundID] OR 9552081[CompoundID] OR 164825[CompoundID] OR 10275455[CompoundID] OR 16666[CompoundID] OR 9839306[CompoundID] OR 5282227[CompoundID] OR 23676745[CompoundID] OR 32881[Compo
undID] OR 91581[CompoundID] OR 39800[CompoundID] OR 33344[CompoundID] OR 15962220[CompoundID] OR 33528[CompoundID] OR 5365075[CompoundID] OR 62829[CompoundID] OR 162381[CompoundID] OR 517202[CompoundI
D] OR 6433353[CompoundID] OR 2730[CompoundID] OR 5372405[CompoundID] OR 36081[CompoundID] OR 3120[CompoundID] OR 3017[CompoundID] OR 2969[CompoundID] OR 18827[CompoundID] OR 19518[CompoundID] OR 19658
[CompoundID] OR 38283[CompoundID] OR 2758[CompoundID] OR 10112[CompoundID] OR 10340[CompoundID] OR 712[CompoundID] OR 5794[CompoundID] OR 3347[CompoundID] OR 104150[CompoundID] OR 2912[CompoundID] OR
2450[CompoundID] OR 40326[CompoundID] OR 40585[CompoundID] OR 517055[CompoundID] OR 10913[CompoundID] OR 108242[CompoundID] OR 62097[CompoundID] OR 41679[CompoundID] OR 54680676[CompoundID] OR 62118[C
ompoundID] OR 753[CompoundID] OR 1030[CompoundID] OR 23673837[CompoundID] OR 54678504[CompoundID] OR 11442[CompoundID] OR 11463[CompoundID] OR 22230[CompoundID] OR 440917[CompoundID] OR 6054[CompoundI
D] OR 43234[CompoundID] OR 22629[CompoundID] OR 3039[CompoundID] OR 2735067[CompoundID] OR 6144[CompoundID] OR 702[CompoundID] OR 284[CompoundID] OR 176[CompoundID] OR 91688[CompoundID] OR 22947[Compo
undID] OR 47445[CompoundID] OR 1711973[CompoundID] OR 243[CompoundID] OR 10342051[CompoundID] OR 5281875[CompoundID] OR 3776[CompoundID] OR 6224[CompoundID] OR 104926[CompoundID] OR 8755[CompoundID] O
R 338[CompoundID] OR 123622[CompoundID] OR 23954[CompoundID] OR 6334[CompoundID] OR 2537[CompoundID] OR 24261[CompoundID] OR 23665760[CompoundID] OR 83975[CompoundID] OR 784[CompoundID] OR 24437[Compo
undID] OR 5360315[CompoundID] OR 311[CompoundID] OR 6549[CompoundID] OR 107689[CompoundID] OR 17100[CompoundID] OR 24976875[CompoundID] OR 6654[CompoundID] OR 71245[CompoundID] OR 6442842[CompoundID]
OR 62334[CompoundID] OR 54698175[CompoundID] OR 6328154[CompoundID] OR 24762[CompoundID] OR 440950[CompoundID] OR 7017[CompoundID] OR 5281873[CompoundID] OR 323[CompoundID] OR 5281167[CompoundID] OR 7
175[CompoundID] OR 7292[CompoundID] OR 6335613[CompoundID] OR 7456[CompoundID] OR 7462[CompoundID]

> <resultIndex>
139

> <resultRange>
1-176

> <textQuery>
7628,244,25059,7618,7641,5053,637511,7714,7762,25429,8842,7794,637566,7843,174,7870,86102,7888,7896,1140,8042,8058,8078,8087,8117,8133,115224,8175,8194,445639,4944,8294,93541,8360,8363,656612,125098,3
352,3303913,64805,31200,1712058,31236,31239,31265,31266,31276,6950273,518659,14896,14798,14829,14830,8635,23266,4284,8693,22311,8759,8785,2723810,8857,3893,9936739,516892,5430,9017,15433,107720,955208
1,164825,10275455,16666,9839306,5282227,23676745,32881,91581,39800,33344,15962220,33528,5365075,62829,162381,517202,6433353,2730,5372405,36081,3120,3017,2969,18827,19518,19658,38283,2758,10112,10340,7
12,5794,3347,104150,2912,2450,40326,40585,517055,10913,108242,62097,41679,54680676,62118,753,1030,23673837,54678504,11442,11463,22230,440917,6054,43234,22629,3039,2735067,6144,702,284,176,91688,22947,
47445,1711973,243,10342051,5281875,3776,6224,104926,8755,338,123622,23954,6334,2537,24261,23665760,83975,784,24437,5360315,311,6549,107689,17100,24976875,6654,71245,6442842,62334,54698175,6328154,2476
2,440950,7017,5281873,323,5281167,7175,7292,6335613,7456,7462

$$$$
6,549
  SciTegic10191915303D

 29 28  0  0  1  0            999 V2000
   -3.7790    1.6890   -0.0940 C   0  0
   -3.3810    0.4490    0.2340 C   0  0
   -1.9750    0.2540    0.7340 C   0  0  3  0  0  0
   -1.0270   -0.2320   -0.3650 C   0  0
    0.4040   -0.4300    0.1350 C   0  0
    1.3130   -0.9840   -0.9300 C   0  0
    2.6370   -0.8200   -0.7910 C   0  0
    3.1490   -0.1190    0.4400 C   0  0
    3.5430   -1.3440   -1.8710 C   0  0
   -2.1350   -0.7870    1.6700 O   0  0
   -1.4410    1.4820    1.4710 C   0  0
   -4.7560    1.9880   -0.4390 H   0  0
   -3.0250    2.4570    0.0080 H   0  0
   -4.1250   -0.3240    0.1070 H   0  0
   -1.4060   -1.1450   -0.8220 H   0  0
   -1.0470    0.4470   -1.2190 H   0  0
    0.3380   -1.1310    0.9670 H   0  0
    0.8110    0.5060    0.5200 H   0  0
    0.8300   -1.4900   -1.7540 H   0  0
    2.8170   -0.5740    1.3710 H   0  0
    2.8170    0.9200    0.4400 H   0  0
    4.2380   -0.1190    0.4400 H   0  0
    3.0780   -1.2010   -2.8480 H   0  0
    4.5140   -0.8520   -1.8140 H   0  0
    3.7050   -2.4140   -1.7320 H   0  0
   -2.1950   -1.6150    1.1680 H   0  0
   -2.2150    1.9630    2.0700 H   0  0
   -1.0600    2.2210    0.7660 H   0  0
   -0.6250    1.2070    2.1390 H   0  0
  1  2  2  0
  2  3  1  0
  3  4  1  0
  3 10  1  0
  3 11  1  0
  4  5  1  0
  5  6  1  0
  6  7  2  0
  7  8  1  0
  7  9  1  0
  1 12  1  0
  1 13  1  0
  2 14  1  0
  4 15  1  0
  4 16  1  0
  5 17  1  0
  5 18  1  0
  6 19  1  0
  8 20  1  0
  8 21  1  0
  8 22  1  0
  9 23  1  0
  9 24  1  0
  9 25  1  0
 10 26  1  0
 11 27  1  0
 11 28  1  0
 11 29  1  0
M  END
> <Name>
6,549

> <OBJECTID>
9223372625268637707

> <ActiveAidCount>
20

> <AtomChiralCount>
1

> <AtomChiralDefCount>
0

> <AtomChiralUndefCount>
1

> <BondChiralCount>
0

> <BondChiralDefCount>
0

> <BondChiralUndefCount>
0

> <CID>
6549

> <CanonicalSmiles>
CC(=CCCC(C)(C=C)O)C

> <Complexity>
154

> <CovalentUnitCount>
1

> <CreateDate>
2004/09/16 00:00

> <HeavyAtomCount>
11

> <HydrogenBondAcceptorCount>
1

> <HydrogenBondDonorCount>
1

> <IUPACName>
3,7-dimethylocta-1,6-dien-3-ol

> <InChI>
InChI=1S/C10H18O/c1-5-10(4,11)8-6-7-9(2)3/h5,7,11H,1,6,8H2,2-4H3

> <InChIKey>
CDOSHBSSFJOMGT-UHFFFAOYSA-N

> <IsomericSmiles>
CC(=CCCC(C)(C=C)O)C

> <IsotopeAtomCount>
0

> <MeSHHeading>
linalool

> <MeSHTerm>
allo-ocimenol
linalool, (S)-isomer
muguol
3,7-dimethyl-1,6-octadien-3-ol
linalool, (R)-isomer
linalool, (+-)-isomer
7-methyl-3-methyleneocta-4,6-dien-2-ol
linalool, titanium (4+) salt
linalool

> <MolecularFormula>
C10H18O

> <MolecularWeight>
154.25

> <PharmAction>
Insecticides
Toxic Actions
Specialty Uses of Chemicals
Chemical Actions and Uses
Pesticides
Agrochemicals

> <RotatableBondCount>
4

> <Smiles>
C=CC(C)(O)CC\C=C(\C)/C

> <SourceCategory>
Chemical Vendors
Legacy Depositors
Research and Development
Curation Efforts
Governmental Organizations
NIH Initiatives
Subscription Services
Journal Publishers

> <Synonym>
Linalool
78-70-6
3,7-Dimethylocta-1,6-dien-3-ol
Linalol
3,7-Dimethyl-1,6-octadien-3-ol
allo-Ocimenol
beta-Linalool
LINALYL ALCOHOL
1,6-Octadien-3-ol, 3,7-dimethyl-
(+-)-Linalool
p-Linalool
Linanool
2,6-Dimethyl-2,7-octadien-6-ol
2,6-Dimethylocta-2,7-dien-6-ol
.beta.-Linalool
Linalool (natural)
2,6-Dimethyl-2,7-octadiene-6-ol
Caswell No. 526A
Linolool
Phantol
FEMA Number 2635
NSC 3789
FEMA No. 2635
CCRIS 6557
HSDB 645
Linalool, 97%
EINECS 201-134-4
EINECS 245-083-6
3,7-dimethyl-octa-1,6-dien-3-ol
MFCD00008906
EPA Pesticide Chemical Code 128838
BRN 1721488
AI3-00942
CHEBI:17580
NSC3789
CDOSHBSSFJOMGT-UHFFFAOYSA-N
2,7-Octadien-6-ol, 2,6-dimethyl-
(1)-3,7-Dimethyl-1,6-octadien-3-ol
dl-3,7-Dimethyl-3-hydroxy-1,6-octadiene
DSSTox_CID_5502
DSSTox_RID_77812
DSSTox_GSID_25502
Q-201306
CAS-78-70-6
LINALOOL (+)
EINECS 204-811-2
Linalool b
Howood Oil
Natural Linalool
(RS)-Linalool
Linalool, .beta.
Linalool,(S)
( )-linalool
(R)-3,7-Dimethyl-1,6-octadien-3-ol
Linalool ex ho oil
(+/-)-linalool
Linalool ex orange oil
3,6-octadien-3-ol
2,7-octadiene-6-ol
2,7-dien-6-ol
3,6-dien-3-ol
AC1L1MRY
AC1Q1NVD
AC1Q1NVE
LINOLOOL (D)
(.+/-.)-Linalool
1,6-OCTADIEN-3-OL, 3,7-DIMETHYL-, (-)-
ACMC-209pf1
EC 201-134-4
AC1Q2BP3
SCHEMBL20316
(+/-) LINALOOL
Linalool ex bois de rose oil
Linalool, analytical standard
0-01-00-00462 (Beilstein Handbook Reference)
KSC377K8J
MLS002152908
CHEMBL25306
GTPL2469
DTXSID7025502
LINALOOL EX BOIS DE ROSE
CTK2H7584
FEMA 2635
KS-00000WLW
HMS2268E18
Linalool, >=97%, FCC, FG
1, 3,7-dimethyl-, (-)-
BB_NC-00123
HY-N0368
NSC-3789
WLN: 1U1XQ1&3UY1&1
Tox21_201658
Tox21_303037
AC-551
ANW-37211
BBL027734
SBB012353
STL373777
3,7-Dimethyl-1, 6-octadien-3-ol
3,7-Dimethyl-1,6-octadien-3-ol|
AKOS015901617
( inverted exclamation markA)-Linalool
FCH1115719
LS-1752
MCULE-2407576698
RP21877
RTR-030706
Linalool 1000 microg/mL in Isopropanol
NCGC00091688-01
NCGC00091688-02
NCGC00091688-03
NCGC00091688-04
NCGC00257060-01
NCGC00259207-01
(?)-3,7-Dimethyl-1,6-octadien-3-ol
22564-99-4
AN-15757
AN-22986
BC207603
LS-97796
SC-74998
SMR000112394
ST069326
WLN: 1Y1&U3XQ1&1U1 -,-
DB-062552
TR-030706
(+/-)-3,7-Dimethyl-1,6-octadien-3-ol
CS-0008916
DL -3,7-Dimethyl-3-hydroxy-1,6-octadiene
FT-0614785
L0048
C03985
(+/-)-3,7-Dimethyl-3-hydroxy-1,6-octadiene
Linalool, primary pharmaceutical reference standard
CU-01000013132-2
I14-13929
Linalool, certified reference material, TraceCERT(R)

> <TPSA>
20.2

> <TotalAidCount>
919

> <TotalFormalCharge>
0

> <XLogP>
2.7

> <database>
PubChem Compound

> <matchingCount>
176

> <primaryID>
6549

> <queryTranslation>
7628[CompoundID] OR 244[CompoundID] OR 25059[CompoundID] OR 7618[CompoundID] OR 7641[CompoundID] OR 5053[CompoundID] OR 637511[CompoundID] OR 7714[CompoundID] OR 7762[CompoundID] OR 25429[CompoundID]
OR 8842[CompoundID] OR 7794[CompoundID] OR 637566[CompoundID] OR 7843[CompoundID] OR 174[CompoundID] OR 7870[CompoundID] OR 86102[CompoundID] OR 7888[CompoundID] OR 7896[CompoundID] OR 1140[CompoundID
] OR 8042[CompoundID] OR 8058[CompoundID] OR 8078[CompoundID] OR 8087[CompoundID] OR 8117[CompoundID] OR 8133[CompoundID] OR 115224[CompoundID] OR 8175[CompoundID] OR 8194[CompoundID] OR 445639[Compou
ndID] OR 4944[CompoundID] OR 8294[CompoundID] OR 93541[CompoundID] OR 8360[CompoundID] OR 8363[CompoundID] OR 656612[CompoundID] OR 125098[CompoundID] OR 3352[CompoundID] OR 3303913[CompoundID] OR 648
05[CompoundID] OR 31200[CompoundID] OR 1712058[CompoundID] OR 31236[CompoundID] OR 31239[CompoundID] OR 31265[CompoundID] OR 31266[CompoundID] OR 31276[CompoundID] OR 6950273[CompoundID] OR 518659[Com
poundID] OR 14896[CompoundID] OR 14798[CompoundID] OR 14829[CompoundID] OR 14830[CompoundID] OR 8635[CompoundID] OR 23266[CompoundID] OR 4284[CompoundID] OR 8693[CompoundID] OR 22311[CompoundID] OR 87
59[CompoundID] OR 8785[CompoundID] OR 2723810[CompoundID] OR 8857[CompoundID] OR 3893[CompoundID] OR 9936739[CompoundID] OR 516892[CompoundID] OR 5430[CompoundID] OR 9017[CompoundID] OR 15433[Compound
ID] OR 107720[CompoundID] OR 9552081[CompoundID] OR 164825[CompoundID] OR 10275455[CompoundID] OR 16666[CompoundID] OR 9839306[CompoundID] OR 5282227[CompoundID] OR 23676745[CompoundID] OR 32881[Compo
undID] OR 91581[CompoundID] OR 39800[CompoundID] OR 33344[CompoundID] OR 15962220[CompoundID] OR 33528[CompoundID] OR 5365075[CompoundID] OR 62829[CompoundID] OR 162381[CompoundID] OR 517202[CompoundI
D] OR 6433353[CompoundID] OR 2730[CompoundID] OR 5372405[CompoundID] OR 36081[CompoundID] OR 3120[CompoundID] OR 3017[CompoundID] OR 2969[CompoundID] OR 18827[CompoundID] OR 19518[CompoundID] OR 19658
[CompoundID] OR 38283[CompoundID] OR 2758[CompoundID] OR 10112[CompoundID] OR 10340[CompoundID] OR 712[CompoundID] OR 5794[CompoundID] OR 3347[CompoundID] OR 104150[CompoundID] OR 2912[CompoundID] OR
2450[CompoundID] OR 40326[CompoundID] OR 40585[CompoundID] OR 517055[CompoundID] OR 10913[CompoundID] OR 108242[CompoundID] OR 62097[CompoundID] OR 41679[CompoundID] OR 54680676[CompoundID] OR 62118[C
ompoundID] OR 753[CompoundID] OR 1030[CompoundID] OR 23673837[CompoundID] OR 54678504[CompoundID] OR 11442[CompoundID] OR 11463[CompoundID] OR 22230[CompoundID] OR 440917[CompoundID] OR 6054[CompoundI
D] OR 43234[CompoundID] OR 22629[CompoundID] OR 3039[CompoundID] OR 2735067[CompoundID] OR 6144[CompoundID] OR 702[CompoundID] OR 284[CompoundID] OR 176[CompoundID] OR 91688[CompoundID] OR 22947[Compo
undID] OR 47445[CompoundID] OR 1711973[CompoundID] OR 243[CompoundID] OR 10342051[CompoundID] OR 5281875[CompoundID] OR 3776[CompoundID] OR 6224[CompoundID] OR 104926[CompoundID] OR 8755[CompoundID] O
R 338[CompoundID] OR 123622[CompoundID] OR 23954[CompoundID] OR 6334[CompoundID] OR 2537[CompoundID] OR 24261[CompoundID] OR 23665760[CompoundID] OR 83975[CompoundID] OR 784[CompoundID] OR 24437[Compo
undID] OR 5360315[CompoundID] OR 311[CompoundID] OR 6549[CompoundID] OR 107689[CompoundID] OR 17100[CompoundID] OR 24976875[CompoundID] OR 6654[CompoundID] OR 71245[CompoundID] OR 6442842[CompoundID]
OR 62334[CompoundID] OR 54698175[CompoundID] OR 6328154[CompoundID] OR 24762[CompoundID] OR 440950[CompoundID] OR 7017[CompoundID] OR 5281873[CompoundID] OR 323[CompoundID] OR 5281167[CompoundID] OR 7
175[CompoundID] OR 7292[CompoundID] OR 6335613[CompoundID] OR 7456[CompoundID] OR 7462[CompoundID]

> <resultIndex>
140

> <resultRange>
1-176

> <textQuery>
7628,244,25059,7618,7641,5053,637511,7714,7762,25429,8842,7794,637566,7843,174,7870,86102,7888,7896,1140,8042,8058,8078,8087,8117,8133,115224,8175,8194,445639,4944,8294,93541,8360,8363,656612,125098,3
352,3303913,64805,31200,1712058,31236,31239,31265,31266,31276,6950273,518659,14896,14798,14829,14830,8635,23266,4284,8693,22311,8759,8785,2723810,8857,3893,9936739,516892,5430,9017,15433,107720,955208
1,164825,10275455,16666,9839306,5282227,23676745,32881,91581,39800,33344,15962220,33528,5365075,62829,162381,517202,6433353,2730,5372405,36081,3120,3017,2969,18827,19518,19658,38283,2758,10112,10340,7
12,5794,3347,104150,2912,2450,40326,40585,517055,10913,108242,62097,41679,54680676,62118,753,1030,23673837,54678504,11442,11463,22230,440917,6054,43234,22629,3039,2735067,6144,702,284,176,91688,22947,
47445,1711973,243,10342051,5281875,3776,6224,104926,8755,338,123622,23954,6334,2537,24261,23665760,83975,784,24437,5360315,311,6549,107689,17100,24976875,6654,71245,6442842,62334,54698175,6328154,2476
2,440950,7017,5281873,323,5281167,7175,7292,6335613,7456,7462

$$$$
6,334
  SciTegic10191915303D

 11 10  0  0  0  0            999 V2000
   -0.3600   -0.4900    0.0330 C   0  0
    0.1810    0.2500    1.2560 C   0  0
    0.0970    0.1350   -1.2850 C   0  0
   -0.0900   -1.5470    0.0720 H   0  0
   -1.4470   -0.5560    0.0720 H   0  0
   -0.1530   -0.2070    2.1880 H   0  0
   -0.1530    1.2890    1.2560 H   0  0
    1.2710    0.2500    1.2560 H   0  0
   -0.2990   -0.4240   -2.1350 H   0  0
   -0.2350    1.1720   -1.3550 H   0  0
    1.1850    0.1270   -1.3590 H   0  0
  1  2  1  0
  1  3  1  0
  1  4  1  0
  1  5  1  0
  2  6  1  0
  2  7  1  0
  2  8  1  0
  3  9  1  0
  3 10  1  0
  3 11  1  0
M  END
> <Name>
6,334

> <OBJECTID>
9223372629563605003

> <ActiveAidCount>
0

> <AtomChiralCount>
0

> <AtomChiralDefCount>
0

> <AtomChiralUndefCount>
0

> <BondChiralCount>
0

> <BondChiralDefCount>
0

> <BondChiralUndefCount>
0

> <CID>
6334

> <CanonicalSmiles>
CCC

> <Complexity>
0

> <CovalentUnitCount>
1

> <CreateDate>
2005/03/26 00:00

> <HeavyAtomCount>
3

> <HydrogenBondAcceptorCount>
0

> <HydrogenBondDonorCount>
0

> <IUPACName>
propane

> <InChI>
InChI=1S/C3H8/c1-3-2/h3H2,1-2H3

> <InChIKey>
ATUOYWHBWRKTHZ-UHFFFAOYSA-N

> <IsomericSmiles>
CCC

> <IsotopeAtomCount>
0

> <MeSHHeading>
Propane

> <MeSHTerm>
Propane

> <MolecularFormula>
C3H8

> <MolecularWeight>
44.1

> <RotatableBondCount>
0

> <Smiles>
C(C)C

> <SourceCategory>
Chemical Vendors
Legacy Depositors
Research and Development
Curation Efforts
Governmental Organizations
NIH Initiatives
Subscription Services
Journal Publishers

> <Synonym>
PROPANE
n-Propane
Dimethylmethane
propan
Propyl hydride
74-98-6
Propyldihydride
Propane liquefied
Hydrocarbon Propellant A-108
Petroleum gas, liquefied
A-108
HC 290
UNII-T75W9911L6
HSDB 1672
R 290
EINECS 200-827-9
UN1978
E944
CH3-CH2-CH3
CHEBI:32879
ATUOYWHBWRKTHZ-UHFFFAOYSA-N
T75W9911L6
Hydrocarbons, C6-30
Alkanes, C18-70
Hydrocarbons, C<10-linear
Hydrocarbons, C2-4, C3-rich
Propane, propylene mix
Propane [USAN:NF]
C18-70 Isoparaffin
(C18-C70) Paraffins
Splitter butane
C3 hydrocarbons
Propylidyneradical
n-Propane-
EINECS 270-689-2
EINECS 272-913-4
EINECS 274-000-6
EINECS 275-017-1
Propane (NF)
Praseodymium Nanofoil
Propane, propylene after caustic wash
Propane, 98%
Freon 290
TRIMETHYLENE GROUP
AC1L1MAR
AC1O5ENX
Propane, 99.97%
Propane, propene fraction
Aliph. hydrocarbons, C3
EC 200-827-9
EC 270-689-2
Polymeric sialosie, P0.1
Propane or propane mixtures
AC1Q2RL3
FCC Propane-propylene stream
68476-49-3
68920-07-0
69430-33-7
70913-86-9
AC1O5E92
CHEMBL135416
QSPL 135
Propane, tank for propane torch
DTXSID5026386
CTK2H8154
IPZJQDSFZGZEOY-UHFFFAOYSA-N
Hydrocarbons, C3 and C3-unsatd.
EINECS 271-259-7
EINECS 271-735-4
CF0048
AKOS009159189
Mixed (C1-C3) gases from debutanizer
UN 1978
Propane, 99.95%, Messer(R) CANGas
LS-119616
427-EP2270895A2
427-EP2275417A2
427-EP2277861A1
427-EP2278637A1
427-EP2281812A1
427-EP2281819A1
427-EP2281821A1
427-EP2284162A2
427-EP2284163A2
427-EP2292630A1
427-EP2295438A1
427-EP2295503A1
427-EP2301918A1
427-EP2305243A1
427-EP2305683A1
427-EP2305687A1
427-EP2311806A2
427-EP2311839A1
427-EP2314589A1
427-EP2316470A2
427-EP2316837A1
427-EP2377845A1
427-EP2380568A1
427-EP2380661A2
InChI=1/C3H8/c1-3-2/h3H2,1-2H
C20783
D05625
EC 271-735-4
28680-EP2279741A2
28680-EP2308843A1
28680-EP2314579A1
29038-EP2305644A1
29038-EP2311842A2
78036-EP2272846A1
78036-EP2277868A1
78036-EP2277869A1
78036-EP2277870A1
78036-EP2292608A1
78036-EP2298076A1
78036-EP2298077A1
78036-EP2301353A1
78036-EP2305031A1
78036-EP2305034A1
78036-EP2305035A1
78036-EP2308866A1
I14-5955
I14-9542
Propane-propylene from catalytic cracking (petroleum)
Propane or propane mixtures [UN1978] [Flammable gas]
Propane or propane mixtures [UN1978] [Flammable gas]
1DDB43B7-5E0D-48E4-8F15-3D3D5116098A
UNII-5K616HU99V component ATUOYWHBWRKTHZ-UHFFFAOYSA-N

> <TPSA>
0

> <TotalAidCount>
5

> <TotalFormalCharge>
0

> <XLogP>
1.8

> <database>
PubChem Compound

> <matchingCount>
176

> <primaryID>
6334

> <queryTranslation>
7628[CompoundID] OR 244[CompoundID] OR 25059[CompoundID] OR 7618[CompoundID] OR 7641[CompoundID] OR 5053[CompoundID] OR 637511[CompoundID] OR 7714[CompoundID] OR 7762[CompoundID] OR 25429[CompoundID]
OR 8842[CompoundID] OR 7794[CompoundID] OR 637566[CompoundID] OR 7843[CompoundID] OR 174[CompoundID] OR 7870[CompoundID] OR 86102[CompoundID] OR 7888[CompoundID] OR 7896[CompoundID] OR 1140[CompoundID
] OR 8042[CompoundID] OR 8058[CompoundID] OR 8078[CompoundID] OR 8087[CompoundID] OR 8117[CompoundID] OR 8133[CompoundID] OR 115224[CompoundID] OR 8175[CompoundID] OR 8194[CompoundID] OR 445639[Compou
ndID] OR 4944[CompoundID] OR 8294[CompoundID] OR 93541[CompoundID] OR 8360[CompoundID] OR 8363[CompoundID] OR 656612[CompoundID] OR 125098[CompoundID] OR 3352[CompoundID] OR 3303913[CompoundID] OR 648
05[CompoundID] OR 31200[CompoundID] OR 1712058[CompoundID] OR 31236[CompoundID] OR 31239[CompoundID] OR 31265[CompoundID] OR 31266[CompoundID] OR 31276[CompoundID] OR 6950273[CompoundID] OR 518659[Com
poundID] OR 14896[CompoundID] OR 14798[CompoundID] OR 14829[CompoundID] OR 14830[CompoundID] OR 8635[CompoundID] OR 23266[CompoundID] OR 4284[CompoundID] OR 8693[CompoundID] OR 22311[CompoundID] OR 87
59[CompoundID] OR 8785[CompoundID] OR 2723810[CompoundID] OR 8857[CompoundID] OR 3893[CompoundID] OR 9936739[CompoundID] OR 516892[CompoundID] OR 5430[CompoundID] OR 9017[CompoundID] OR 15433[Compound
ID] OR 107720[CompoundID] OR 9552081[CompoundID] OR 164825[CompoundID] OR 10275455[CompoundID] OR 16666[CompoundID] OR 9839306[CompoundID] OR 5282227[CompoundID] OR 23676745[CompoundID] OR 32881[Compo
undID] OR 91581[CompoundID] OR 39800[CompoundID] OR 33344[CompoundID] OR 15962220[CompoundID] OR 33528[CompoundID] OR 5365075[CompoundID] OR 62829[CompoundID] OR 162381[CompoundID] OR 517202[CompoundI
D] OR 6433353[CompoundID] OR 2730[CompoundID] OR 5372405[CompoundID] OR 36081[CompoundID] OR 3120[CompoundID] OR 3017[CompoundID] OR 2969[CompoundID] OR 18827[CompoundID] OR 19518[CompoundID] OR 19658
[CompoundID] OR 38283[CompoundID] OR 2758[CompoundID] OR 10112[CompoundID] OR 10340[CompoundID] OR 712[CompoundID] OR 5794[CompoundID] OR 3347[CompoundID] OR 104150[CompoundID] OR 2912[CompoundID] OR
2450[CompoundID] OR 40326[CompoundID] OR 40585[CompoundID] OR 517055[CompoundID] OR 10913[CompoundID] OR 108242[CompoundID] OR 62097[CompoundID] OR 41679[CompoundID] OR 54680676[CompoundID] OR 62118[C
ompoundID] OR 753[CompoundID] OR 1030[CompoundID] OR 23673837[CompoundID] OR 54678504[CompoundID] OR 11442[CompoundID] OR 11463[CompoundID] OR 22230[CompoundID] OR 440917[CompoundID] OR 6054[CompoundI
D] OR 43234[CompoundID] OR 22629[CompoundID] OR 3039[CompoundID] OR 2735067[CompoundID] OR 6144[CompoundID] OR 702[CompoundID] OR 284[CompoundID] OR 176[CompoundID] OR 91688[CompoundID] OR 22947[Compo
undID] OR 47445[CompoundID] OR 1711973[CompoundID] OR 243[CompoundID] OR 10342051[CompoundID] OR 5281875[CompoundID] OR 3776[CompoundID] OR 6224[CompoundID] OR 104926[CompoundID] OR 8755[CompoundID] O
R 338[CompoundID] OR 123622[CompoundID] OR 23954[CompoundID] OR 6334[CompoundID] OR 2537[CompoundID] OR 24261[CompoundID] OR 23665760[CompoundID] OR 83975[CompoundID] OR 784[CompoundID] OR 24437[Compo
undID] OR 5360315[CompoundID] OR 311[CompoundID] OR 6549[CompoundID] OR 107689[CompoundID] OR 17100[CompoundID] OR 24976875[CompoundID] OR 6654[CompoundID] OR 71245[CompoundID] OR 6442842[CompoundID]
OR 62334[CompoundID] OR 54698175[CompoundID] OR 6328154[CompoundID] OR 24762[CompoundID] OR 440950[CompoundID] OR 7017[CompoundID] OR 5281873[CompoundID] OR 323[CompoundID] OR 5281167[CompoundID] OR 7
175[CompoundID] OR 7292[CompoundID] OR 6335613[CompoundID] OR 7456[CompoundID] OR 7462[CompoundID]

> <resultIndex>
141

> <resultRange>
1-176

> <textQuery>
7628,244,25059,7618,7641,5053,637511,7714,7762,25429,8842,7794,637566,7843,174,7870,86102,7888,7896,1140,8042,8058,8078,8087,8117,8133,115224,8175,8194,445639,4944,8294,93541,8360,8363,656612,125098,3
352,3303913,64805,31200,1712058,31236,31239,31265,31266,31276,6950273,518659,14896,14798,14829,14830,8635,23266,4284,8693,22311,8759,8785,2723810,8857,3893,9936739,516892,5430,9017,15433,107720,955208
1,164825,10275455,16666,9839306,5282227,23676745,32881,91581,39800,33344,15962220,33528,5365075,62829,162381,517202,6433353,2730,5372405,36081,3120,3017,2969,18827,19518,19658,38283,2758,10112,10340,7
12,5794,3347,104150,2912,2450,40326,40585,517055,10913,108242,62097,41679,54680676,62118,753,1030,23673837,54678504,11442,11463,22230,440917,6054,43234,22629,3039,2735067,6144,702,284,176,91688,22947,
47445,1711973,243,10342051,5281875,3776,6224,104926,8755,338,123622,23954,6334,2537,24261,23665760,83975,784,24437,5360315,311,6549,107689,17100,24976875,6654,71245,6442842,62334,54698175,6328154,2476
2,440950,7017,5281873,323,5281167,7175,7292,6335613,7456,7462

$$$$
6,224
  SciTegic10191915303D

 18 17  0  0  0  0            999 V2000
    0.4630   -1.4510    0.1150 O   0  0
    0.3770   -0.3170   -2.2640 O   0  5
    0.7470    1.6140   -1.4100 O   0  0
    2.6390    0.8320    2.2910 O   0  5
   -2.0470   -2.1770   -0.9460 O   0  5
    2.7220    0.5110    0.1740 O   0  0
   -2.5460   -0.4330   -2.0870 O   0  0
    0.0110   -0.1190    0.0230 C   0  0
    0.4130    0.4570   -1.3080 C   0  0
    0.5940    0.6670    1.1980 C   0  0
   -1.5180   -0.1320    0.0230 C   0  0
    2.0990    0.6670    1.1980 C   0  0
   -2.0850   -0.9580   -1.1010 C   0  0
    1.4110   -1.4460   -0.0930 H   0  0
    0.2240    0.1780    2.1000 H   0  0
    0.2240    1.6920    1.1980 H   0  0
   -1.8280    0.9070   -0.0880 H   0  0
   -1.9000   -0.4930    0.9780 H   0  0
  1  8  1  0
  2  9  1  0
  3  9  2  0
  4 12  1  0
  5 13  1  0
  6 12  2  0
  7 13  2  0
  8  9  1  0
  8 10  1  0
  8 11  1  0
 10 12  1  0
 11 13  1  0
  1 14  1  0
 10 15  1  0
 10 16  1  0
 11 17  1  0
 11 18  1  0
M  CHG  3   2  -1   4  -1   5  -1
M  END
> <Name>
6,224

> <OBJECTID>
9223372633858572299

> <ActiveAidCount>
2

> <AtomChiralCount>
0

> <AtomChiralDefCount>
0

> <AtomChiralUndefCount>
0

> <BondChiralCount>
0

> <BondChiralDefCount>
0

> <BondChiralUndefCount>
0

> <CID>
6224

> <CanonicalSmiles>
C(C(=O)[O-])C(CC(=O)[O-])(C(=O)[O-])O.[Na+].[Na+].[Na+]

> <Complexity>
211

> <CovalentUnitCount>
4

> <CreateDate>
2005/08/08 00:00

> <HeavyAtomCount>
16

> <HydrogenBondAcceptorCount>
7

> <HydrogenBondDonorCount>
1

> <IUPACName>
trisodium;2-hydroxypropane-1,2,3-tricarboxylate

> <InChI>
InChI=1S/C6H8O7.3Na/c7-3(8)1-6(13,5(11)12)2-4(9)10;;;/h13H,1-2H2,(H,7,8)(H,9,10)(H,11,12);;;/q;3*+1/p-3

> <InChIKey>
HRXKRNGNAMMEHJ-UHFFFAOYSA-K

> <IsomericSmiles>
C(C(=O)[O-])C(CC(=O)[O-])(C(=O)[O-])O.[Na+].[Na+].[Na+]

> <IsotopeAtomCount>
0

> <MeSHHeading>
Sodium Citrate

> <MeSHTerm>
sodium citrate dihydrate
sodium citrate, anhydrous
Sodium Citrate Monobasic
Monosodium Citrate
sodium citrate
trisodium citrate dihydrate
Citra ph
anhydrous sodium citrate

> <MolecularFormula>
C6H5Na3O7

> <MolecularWeight>
258.07

> <PharmAction>
Therapeutic Uses
Pharmacologic Actions
Buffers
Food Preservatives
Food Ingredients
Specialty Uses of Chemicals
Food Additives
Laboratory Chemicals
Chemical Actions and Uses
Anticoagulants
Hematologic Agents

> <RotatableBondCount>
2

> <Smiles>
[Na+].[Na+].[Na+].OC(CC(=O)[O-])(CC(=O)[O-])C(=O)[O-]

> <SourceCategory>
Chemical Vendors
Legacy Depositors
Research and Development
Curation Efforts
Governmental Organizations
Subscription Services
Journal Publishers

> <Synonym>
Sodium citrate
68-04-2
TRISODIUM CITRATE
Citrosodine
Sodium citrate anhydrous
Citrosodina
Natrocitral
Citnatin
Citreme
Citrosodna
Trisodium citrate, anhydrous
sodium citrate, anhydrous
Sodium 2-hydroxypropane-1,2,3-tricarboxylate
Trisodium citrate anhydrous
Citric acid, trisodium salt
Citric acid trisodium salt
1,2,3-Propanetricarboxylic acid, 2-hydroxy-, trisodium salt
UNII-RS7A450LGA
FEMA No. 3026
CCRIS 3293
Sodium citrate (Na3C6H5O7)
HSDB 5201
EINECS 200-675-3
MFCD00012462
RS7A450LGA
CHEBI:53258
Trisodium 2-hydroxy-1,2,3-propanetricarboxylate
Citric acid trisodium salt, anhydrous
Citric Acid Trisodium Salt, Dihydrate
CITRIC ACID, SODIUM SALT
trisodium 2-hydroxypropane-1,2,3-tricarboxylate
Sodium citrate,anhydrous
2-Hydroxy-1,2,3-propanetricarboxylic acid, trisodium salt
1,2,3-Propanetricarboxylic acid, 2-hydroxy-, sodium salt (1:3)
994-36-5
Citric acid, trisodium salt, 98%, pure, anhydrous
tri-sodium citrate
sodium citrate salt
sodium (iii) citrate
Sodium citrate (USP)
EC 200-675-3
Sodium Citrate (anhydrous)
AC1L1M2C
C6H5Na3O7
CHEMBL1355
C5H6O7
DTXSID2026363
CTK5C7194
KS-00000YJA
Citric acid sodium salt anhydrous
Citric acid trisodium salt, 99%
HRXKRNGNAMMEHJ-UHFFFAOYSA-K
CS-B1704
AKOS015915009
Citrate Solution, pH ~3.0, 30 mM
DB09154
LS-2341
RL04596
AC-15008
AK112160
AN-23773
BC208433
E331
K121
SC-65098
Sodium citrate dihydrate USP Fine Granular
AX8105975
ST2413801
B7298
FT-0623960
1835-EP2269978A2
1835-EP2269985A2
1835-EP2269991A2
1835-EP2270017A1
1835-EP2270505A1
1835-EP2272817A1
1835-EP2272822A1
1835-EP2272843A1
1835-EP2275413A1
1835-EP2277565A2
1835-EP2277566A2
1835-EP2277567A1
1835-EP2277568A2
1835-EP2277569A2
1835-EP2277570A2
1835-EP2277867A2
1835-EP2280003A2
1835-EP2280010A2
1835-EP2281559A1
1835-EP2281817A1
1835-EP2281818A1
1835-EP2281823A2
1835-EP2284150A2
1835-EP2284151A2
1835-EP2284152A2
1835-EP2284153A2
1835-EP2284155A2
1835-EP2284156A2
1835-EP2284160A1
1835-EP2284164A2
1835-EP2287140A2
1835-EP2287148A2
1835-EP2287150A2
1835-EP2287155A1
1835-EP2287156A1
1835-EP2287160A1
1835-EP2287163A1
1835-EP2289871A1
1835-EP2289893A1
1835-EP2292227A2
1835-EP2292280A1
1835-EP2292590A2
1835-EP2292611A1
1835-EP2292612A2
1835-EP2295402A2
1835-EP2295406A1
1835-EP2295414A1
1835-EP2295416A2
1835-EP2295419A2
1835-EP2295426A1
1835-EP2295427A1
1835-EP2295437A1
1835-EP2298731A1
1835-EP2298732A1
1835-EP2298734A2
1835-EP2298735A1
1835-EP2298748A2
1835-EP2298772A1
1835-EP2298775A1
1835-EP2301534A1
1835-EP2301912A2
1835-EP2301913A1
1835-EP2301914A1
1835-EP2301916A2
1835-EP2301941A1
1835-EP2305243A1
1835-EP2305637A2
1835-EP2305657A2
1835-EP2305678A1
1835-EP2308510A1
1835-EP2308562A2
1835-EP2308832A1
1835-EP2308839A1
1835-EP2308861A1
1835-EP2308863A1
1835-EP2308872A1
1835-EP2308873A1
1835-EP2308875A1
1835-EP2311451A1
1835-EP2311796A1
1835-EP2311797A1
1835-EP2311798A1
1835-EP2311799A1
1835-EP2311807A1
1835-EP2311821A1
1835-EP2311823A1
1835-EP2311831A1
1835-EP2311837A1
1835-EP2311842A2
1835-EP2314575A1
1835-EP2314584A1
1835-EP2314586A1
1835-EP2314593A1
1835-EP2316450A1
1835-EP2316459A1
1835-EP2316470A2
1835-EP2316829A1
1835-EP2316831A1
1835-EP2316834A1
1835-EP2316836A1
1835-EP2316937A1
1835-EP2371811A2
1835-EP2374454A1
1835-EP2380568A1
D05855
88676-EP2272841A1
88676-EP2280001A1
88676-EP2301936A1
88676-EP2305825A1
Sodium citrate, 0.5M buffer solution, pH 5.0
Sodium citrate, 0.5M buffer solution, pH 5.5
Sodium citrate, 0.5M buffer solution, pH 6.0
Sodium citrate, 0.5M buffer solution, pH 6.5
I14-6947
I14-7690
J-520101
Citric acid trisodium salt, anhydrous, >=98% (GC)
Citrate Solution, pH 3.6+/-0.1 (25 C), 27 mM
sodium dihydrogen 2-hydroxypropane-1,2,3-tricarboxylate
2-Hydroxy-1,2,3-propanetricarboxylic acid trisodium salt
Citric acid trisodium salt, Vetec(TM) reagent grade, 98%
UNII-1Q73Q2JULR component HRXKRNGNAMMEHJ-UHFFFAOYSA-K
1,2,3-Propanetricarboxylicacid, 2-hydroxy-, sodium salt (1:3)
2-Hydroxy-1,2,3-propanenetricarboxylic acid trisodium salt dihydrate
Citrate Concentrated Solution, BioUltra, for molecular biology, 1 M in H2O
Buffer solution pH 5.0 (20 C), citric acid ~0.096 M, sodium hydroxide ~0.20 M
Citrate Concentrated Solution, BioReagent, suitable for coagulation assays, 4 % (w/v)

> <TPSA>
141

> <TotalAidCount>
11

> <TotalFormalCharge>
0

> <database>
PubChem Compound

> <matchingCount>
176

> <primaryID>
6224

> <queryTranslation>
7628[CompoundID] OR 244[CompoundID] OR 25059[CompoundID] OR 7618[CompoundID] OR 7641[CompoundID] OR 5053[CompoundID] OR 637511[CompoundID] OR 7714[CompoundID] OR 7762[CompoundID] OR 25429[CompoundID]
OR 8842[CompoundID] OR 7794[CompoundID] OR 637566[CompoundID] OR 7843[CompoundID] OR 174[CompoundID] OR 7870[CompoundID] OR 86102[CompoundID] OR 7888[CompoundID] OR 7896[CompoundID] OR 1140[CompoundID
] OR 8042[CompoundID] OR 8058[CompoundID] OR 8078[CompoundID] OR 8087[CompoundID] OR 8117[CompoundID] OR 8133[CompoundID] OR 115224[CompoundID] OR 8175[CompoundID] OR 8194[CompoundID] OR 445639[Compou
ndID] OR 4944[CompoundID] OR 8294[CompoundID] OR 93541[CompoundID] OR 8360[CompoundID] OR 8363[CompoundID] OR 656612[CompoundID] OR 125098[CompoundID] OR 3352[CompoundID] OR 3303913[CompoundID] OR 648
05[CompoundID] OR 31200[CompoundID] OR 1712058[CompoundID] OR 31236[CompoundID] OR 31239[CompoundID] OR 31265[CompoundID] OR 31266[CompoundID] OR 31276[CompoundID] OR 6950273[CompoundID] OR 518659[Com
poundID] OR 14896[CompoundID] OR 14798[CompoundID] OR 14829[CompoundID] OR 14830[CompoundID] OR 8635[CompoundID] OR 23266[CompoundID] OR 4284[CompoundID] OR 8693[CompoundID] OR 22311[CompoundID] OR 87
59[CompoundID] OR 8785[CompoundID] OR 2723810[CompoundID] OR 8857[CompoundID] OR 3893[CompoundID] OR 9936739[CompoundID] OR 516892[CompoundID] OR 5430[CompoundID] OR 9017[CompoundID] OR 15433[Compound
ID] OR 107720[CompoundID] OR 9552081[CompoundID] OR 164825[CompoundID] OR 10275455[CompoundID] OR 16666[CompoundID] OR 9839306[CompoundID] OR 5282227[CompoundID] OR 23676745[CompoundID] OR 32881[Compo
undID] OR 91581[CompoundID] OR 39800[CompoundID] OR 33344[CompoundID] OR 15962220[CompoundID] OR 33528[CompoundID] OR 5365075[CompoundID] OR 62829[CompoundID] OR 162381[CompoundID] OR 517202[CompoundI
D] OR 6433353[CompoundID] OR 2730[CompoundID] OR 5372405[CompoundID] OR 36081[CompoundID] OR 3120[CompoundID] OR 3017[CompoundID] OR 2969[CompoundID] OR 18827[CompoundID] OR 19518[CompoundID] OR 19658
[CompoundID] OR 38283[CompoundID] OR 2758[CompoundID] OR 10112[CompoundID] OR 10340[CompoundID] OR 712[CompoundID] OR 5794[CompoundID] OR 3347[CompoundID] OR 104150[CompoundID] OR 2912[CompoundID] OR
2450[CompoundID] OR 40326[CompoundID] OR 40585[CompoundID] OR 517055[CompoundID] OR 10913[CompoundID] OR 108242[CompoundID] OR 62097[CompoundID] OR 41679[CompoundID] OR 54680676[CompoundID] OR 62118[C
ompoundID] OR 753[CompoundID] OR 1030[CompoundID] OR 23673837[CompoundID] OR 54678504[CompoundID] OR 11442[CompoundID] OR 11463[CompoundID] OR 22230[CompoundID] OR 440917[CompoundID] OR 6054[CompoundI
D] OR 43234[CompoundID] OR 22629[CompoundID] OR 3039[CompoundID] OR 2735067[CompoundID] OR 6144[CompoundID] OR 702[CompoundID] OR 284[CompoundID] OR 176[CompoundID] OR 91688[CompoundID] OR 22947[Compo
undID] OR 47445[CompoundID] OR 1711973[CompoundID] OR 243[CompoundID] OR 10342051[CompoundID] OR 5281875[CompoundID] OR 3776[CompoundID] OR 6224[CompoundID] OR 104926[CompoundID] OR 8755[CompoundID] O
R 338[CompoundID] OR 123622[CompoundID] OR 23954[CompoundID] OR 6334[CompoundID] OR 2537[CompoundID] OR 24261[CompoundID] OR 23665760[CompoundID] OR 83975[CompoundID] OR 784[CompoundID] OR 24437[Compo
undID] OR 5360315[CompoundID] OR 311[CompoundID] OR 6549[CompoundID] OR 107689[CompoundID] OR 17100[CompoundID] OR 24976875[CompoundID] OR 6654[CompoundID] OR 71245[CompoundID] OR 6442842[CompoundID]
OR 62334[CompoundID] OR 54698175[CompoundID] OR 6328154[CompoundID] OR 24762[CompoundID] OR 440950[CompoundID] OR 7017[CompoundID] OR 5281873[CompoundID] OR 323[CompoundID] OR 5281167[CompoundID] OR 7
175[CompoundID] OR 7292[CompoundID] OR 6335613[CompoundID] OR 7456[CompoundID] OR 7462[CompoundID]

> <resultIndex>
142

> <resultRange>
1-176

> <textQuery>
7628,244,25059,7618,7641,5053,637511,7714,7762,25429,8842,7794,637566,7843,174,7870,86102,7888,7896,1140,8042,8058,8078,8087,8117,8133,115224,8175,8194,445639,4944,8294,93541,8360,8363,656612,125098,3
352,3303913,64805,31200,1712058,31236,31239,31265,31266,31276,6950273,518659,14896,14798,14829,14830,8635,23266,4284,8693,22311,8759,8785,2723810,8857,3893,9936739,516892,5430,9017,15433,107720,955208
1,164825,10275455,16666,9839306,5282227,23676745,32881,91581,39800,33344,15962220,33528,5365075,62829,162381,517202,6433353,2730,5372405,36081,3120,3017,2969,18827,19518,19658,38283,2758,10112,10340,7
12,5794,3347,104150,2912,2450,40326,40585,517055,10913,108242,62097,41679,54680676,62118,753,1030,23673837,54678504,11442,11463,22230,440917,6054,43234,22629,3039,2735067,6144,702,284,176,91688,22947,
47445,1711973,243,10342051,5281875,3776,6224,104926,8755,338,123622,23954,6334,2537,24261,23665760,83975,784,24437,5360315,311,6549,107689,17100,24976875,6654,71245,6442842,62334,54698175,6328154,2476
2,440950,7017,5281873,323,5281167,7175,7292,6335613,7456,7462

$$$$
6,054
  SciTegic10191915303D

 19 19  0  0  0  0            999 V2000
    1.8190    2.9490    0.9010 O   0  0
    1.1860    1.6920    0.9790 C   0  0
    0.6060    1.3610   -0.3980 C   0  0
   -0.0920    0.0490   -0.3980 C   0  0
   -1.4960   -0.0040   -0.3980 C   0  0
   -2.1540   -1.2460   -0.3980 C   0  0
   -1.4080   -2.4370   -0.3980 C   0  0
   -0.0040   -2.3870   -0.3980 C   0  0
    0.6550   -1.1440   -0.3980 C   0  0
    2.1800    3.1410    1.7800 H   0  0
    0.3930    1.7560    1.7250 H   0  0
    1.9320    0.9530    1.2680 H   0  0
    1.3890    1.3580   -1.1560 H   0  0
   -0.0860    2.1390   -0.7200 H   0  0
   -2.0760    0.9080   -0.3980 H   0  0
   -3.2340   -1.2850   -0.3980 H   0  0
   -1.9140   -3.3910   -0.3980 H   0  0
    0.5710   -3.3010   -0.3980 H   0  0
    1.7350   -1.1110   -0.3980 H   0  0
  1  2  1  0
  2  3  1  0
  3  4  1  0
  4  5  2  0
  4  9  1  0
  5  6  1  0
  6  7  2  0
  7  8  1  0
  8  9  2  0
  1 10  1  0
  2 11  1  0
  2 12  1  0
  3 13  1  0
  3 14  1  0
  5 15  1  0
  6 16  1  0
  7 17  1  0
  8 18  1  0
  9 19  1  0
M  END
> <Name>
6,054

> <OBJECTID>
9223372638153539595

> <ActiveAidCount>
2

> <AtomChiralCount>
0

> <AtomChiralDefCount>
0

> <AtomChiralUndefCount>
0

> <BondChiralCount>
0

> <BondChiralDefCount>
0

> <BondChiralUndefCount>
0

> <CID>
6054

> <CanonicalSmiles>
C1=CC=C(C=C1)CCO

> <Complexity>
65

> <CovalentUnitCount>
1

> <CreateDate>
2005/03/26 00:00

> <HeavyAtomCount>
9

> <HydrogenBondAcceptorCount>
1

> <HydrogenBondDonorCount>
1

> <IUPACName>
2-phenylethanol

> <InChI>
InChI=1S/C8H10O/c9-7-6-8-4-2-1-3-5-8/h1-5,9H,6-7H2

> <InChIKey>
WRMNZCZEMHIOCP-UHFFFAOYSA-N

> <IsomericSmiles>
C1=CC=C(C=C1)CCO

> <IsotopeAtomCount>
0

> <MeSHHeading>
Phenylethyl Alcohol

> <MeSHTerm>
beta Phenylethanol
Alcohol, Phenylethyl
Phenylethanol
beta-Phenylethanol
2-Phenylethanol
2 Phenylethanol
Carbinol, Benzyl
Alcohol, Phenethyl
Benzyl Carbinol
Phenethyl Alcohol
Phenylethyl Alcohol

> <MolecularFormula>
C8H10O

> <MolecularWeight>
122.16

> <PharmAction>
Disinfectants
Specialty Uses of Chemicals
Therapeutic Uses
Anti-Infective Agents
Anti-Infective Agents, Local
Pharmacologic Actions
Pharmaceutic Aids
Pharmaceutical Preparations
Preservatives, Pharmaceutical
Chemical Actions and Uses

> <RotatableBondCount>
2

> <Smiles>
OCCc1ccccc1

> <SourceCategory>
Chemical Vendors
Legacy Depositors
Research and Development
Curation Efforts
Governmental Organizations
NIH Initiatives
Subscription Services
Journal Publishers

> <Synonym>
2-PHENYLETHANOL
Phenethyl alcohol
Benzeneethanol
60-12-8
Phenylethyl alcohol
Benzyl carbinol
Phenylethanol
Phenethanol
2-Phenylethyl alcohol
2-PHENYL-ETHANOL
beta-Phenylethanol
2-Phenylethan-1-Ol
2-Phenethyl alcohol
Benzylmethanol
Methanol, benzyl-
Benzenethanol
Benzylcarbinol
Phenethylalcohol
2-Hydroxyethylbenzene
1-Phenyl-2-ethanol
Ethanol, 2-phenyl-
2-PEA
Phenyl ethyl alcohol
beta-Phenylethyl alcohol
FEMA No. 2858
beta-PEA
Caswell No. 655C
Phenyl Ethanol(Natural)
FEMA Number 2858
2-Phenethanol
beta-Fenylethanol [Czech]
2-phenyl ethanol
Hydroxyethylbenzene
Phenethyl alcohol (natural)
UNII-ML9LGA7468
MFCD00002886
beta-Fenethylalkohol [Czech]
.beta.-Phenylethanol
.beta.-PEA
HSDB 5002
.beta.-Phenethyl alcohol
EINECS 200-456-2
.beta.-Hydroxyethylbenzene
.beta.-Phenylethyl alcohol
Phenylethyl alcohol [USP]
EPA Pesticide Chemical Code 001503
NSC 406252
BRN 1905732
AI3-00744
ML9LGA7468
CHEBI:49000
WRMNZCZEMHIOCP-UHFFFAOYSA-N
1321-27-3
NCGC00166215-02
Phenethyl alcohol, 99%
DSSTox_CID_6342
Phenylethyl alcohol (USP)
DSSTox_RID_78104
DSSTox_GSID_26342
b-pea
beta-Fenylethanol
CAS-60-12-8
beta-Fenethylalkohol
PEL
SMR000059156
benzene-ethanol
Mellol
phenyl-ethanol
Benzyl-Methanol
phenethyl-alcohol
2-PhenyIethanol
.beta.-Phenethanol
.beta.-Fenylethanol
b-Hydroxyethylbenzene
Benzyl ethyl alcohol
2-phenyl-1-ethanol
Benzeneethanol, 9CI
betaphenylethyl alcohol
.beta.-Fenethylalkohol
2-Phenylethanol, USP
Rose oil (Salt/Mix)
A-PEA
ACMC-1AZIH
(2-Hydroxyethyl)benzene
beta -hydroxyethylbenzene
2-Phenylethanol, 99%
AC1Q7CJQ
AC1Q7CJR
.beta.-P.E.A.
Phenylethyl alcohol, USAN
bmse000659
Phenylethyl, beta- alcohol
EC 200-456-2
2-(2-Hydroxyethyl)benzene
AC1L1LP9
AC1Q1HG6
SCHEMBL1838
WLN: Q2R
4-06-00-03067 (Beilstein Handbook Reference)
KSC237A2B
MLS001066349
MLS001336026
Phenethyl alcohol, 8CI, BAN
CHEMBL448500
PHENYLETHYL, B- ALCOHOL
DTXSID9026342
BDBM85807
FEMA 2858
KS-00000WSD
HMS2093H05
HMS2233H06
HMS3374P04
Pharmakon1600-01505398
ZINC895934
CS-B1821
HY-B1290
NSC_6054
Tox21_113544
Tox21_201322
Tox21_303383
ANW-13578
BBL036905
NSC406252
NSC759116
SBB040879
STL281950
2-Phenylethanol, >=99.0% (GC)
AKOS000249688
Tox21_113544_1
AS00558
CCG-213419
DB02192
EBD2219942
LS-2335
MCULE-8439044075
NE10237
NSC-406252
NSC-759116
RL04267
RTR-037232
CAS_60-12-8
Phenethyl alcohol, >=99%, FCC, FG
NCGC00166215-01
NCGC00166215-03
NCGC00166215-05
NCGC00257347-01
NCGC00258874-01
AC-18484
AN-23631
BC213746
S992
SC-46713
ZB015067
SBI-0206858.P001
TR-037232
FT-0613332
P0084
ST50214476
W6811
EN300-19347
C05853
D00192
Phenethyl alcohol, natural, >=99%, FCC, FG
12472-EP2287158A1
12472-EP2311801A1
12472-EP2316826A1
12472-EP2372017A1
37330-EP2284157A1
37330-EP2311802A1
37330-EP2311803A1
37330-EP2371814A1
47427-EP2295426A1
47427-EP2295427A1
47427-EP2305673A1
47427-EP2308877A1
47427-EP2311834A1
47427-EP2374783A1
66877-EP2270505A1
66877-EP2281823A2
66877-EP2292612A2
66877-EP2295406A1
66877-EP2298731A1
66877-EP2298772A1
66877-EP2308839A1
AB00698274_05
196135-EP2272972A1
196135-EP2272973A1
196135-EP2277872A1
A832606
SR-01000763553
I01-4509
Q-200318
SR-01000763553-2
0DE4CADC-AB8A-4038-BD6F-EBD009885652
F0001-1575
Z234896351
InChI=1/C8H10O/c9-7-6-8-4-2-1-3-5-8/h1-5,9H,6-7H
Phenylethyl alcohol, United States Pharmacopeia (USP) Reference Standard
Phenylethyl Alcohol, Pharmaceutical Secondary Standard; Certified Reference Material

> <TPSA>
20.2

> <TotalAidCount>
620

> <TotalFormalCharge>
0

> <XLogP>
1.4

> <database>
PubChem Compound

> <matchingCount>
176

> <primaryID>
6054

> <queryTranslation>
7628[CompoundID] OR 244[CompoundID] OR 25059[CompoundID] OR 7618[CompoundID] OR 7641[CompoundID] OR 5053[CompoundID] OR 637511[CompoundID] OR 7714[CompoundID] OR 7762[CompoundID] OR 25429[CompoundID]
OR 8842[CompoundID] OR 7794[CompoundID] OR 637566[CompoundID] OR 7843[CompoundID] OR 174[CompoundID] OR 7870[CompoundID] OR 86102[CompoundID] OR 7888[CompoundID] OR 7896[CompoundID] OR 1140[CompoundID
] OR 8042[CompoundID] OR 8058[CompoundID] OR 8078[CompoundID] OR 8087[CompoundID] OR 8117[CompoundID] OR 8133[CompoundID] OR 115224[CompoundID] OR 8175[CompoundID] OR 8194[CompoundID] OR 445639[Compou
ndID] OR 4944[CompoundID] OR 8294[CompoundID] OR 93541[CompoundID] OR 8360[CompoundID] OR 8363[CompoundID] OR 656612[CompoundID] OR 125098[CompoundID] OR 3352[CompoundID] OR 3303913[CompoundID] OR 648
05[CompoundID] OR 31200[CompoundID] OR 1712058[CompoundID] OR 31236[CompoundID] OR 31239[CompoundID] OR 31265[CompoundID] OR 31266[CompoundID] OR 31276[CompoundID] OR 6950273[CompoundID] OR 518659[Com
poundID] OR 14896[CompoundID] OR 14798[CompoundID] OR 14829[CompoundID] OR 14830[CompoundID] OR 8635[CompoundID] OR 23266[CompoundID] OR 4284[CompoundID] OR 8693[CompoundID] OR 22311[CompoundID] OR 87
59[CompoundID] OR 8785[CompoundID] OR 2723810[CompoundID] OR 8857[CompoundID] OR 3893[CompoundID] OR 9936739[CompoundID] OR 516892[CompoundID] OR 5430[CompoundID] OR 9017[CompoundID] OR 15433[Compound
ID] OR 107720[CompoundID] OR 9552081[CompoundID] OR 164825[CompoundID] OR 10275455[CompoundID] OR 16666[CompoundID] OR 9839306[CompoundID] OR 5282227[CompoundID] OR 23676745[CompoundID] OR 32881[Compo
undID] OR 91581[CompoundID] OR 39800[CompoundID] OR 33344[CompoundID] OR 15962220[CompoundID] OR 33528[CompoundID] OR 5365075[CompoundID] OR 62829[CompoundID] OR 162381[CompoundID] OR 517202[CompoundI
D] OR 6433353[CompoundID] OR 2730[CompoundID] OR 5372405[CompoundID] OR 36081[CompoundID] OR 3120[CompoundID] OR 3017[CompoundID] OR 2969[CompoundID] OR 18827[CompoundID] OR 19518[CompoundID] OR 19658
[CompoundID] OR 38283[CompoundID] OR 2758[CompoundID] OR 10112[CompoundID] OR 10340[CompoundID] OR 712[CompoundID] OR 5794[CompoundID] OR 3347[CompoundID] OR 104150[CompoundID] OR 2912[CompoundID] OR
2450[CompoundID] OR 40326[CompoundID] OR 40585[CompoundID] OR 517055[CompoundID] OR 10913[CompoundID] OR 108242[CompoundID] OR 62097[CompoundID] OR 41679[CompoundID] OR 54680676[CompoundID] OR 62118[C
ompoundID] OR 753[CompoundID] OR 1030[CompoundID] OR 23673837[CompoundID] OR 54678504[CompoundID] OR 11442[CompoundID] OR 11463[CompoundID] OR 22230[CompoundID] OR 440917[CompoundID] OR 6054[CompoundI
D] OR 43234[CompoundID] OR 22629[CompoundID] OR 3039[CompoundID] OR 2735067[CompoundID] OR 6144[CompoundID] OR 702[CompoundID] OR 284[CompoundID] OR 176[CompoundID] OR 91688[CompoundID] OR 22947[Compo
undID] OR 47445[CompoundID] OR 1711973[CompoundID] OR 243[CompoundID] OR 10342051[CompoundID] OR 5281875[CompoundID] OR 3776[CompoundID] OR 6224[CompoundID] OR 104926[CompoundID] OR 8755[CompoundID] O
R 338[CompoundID] OR 123622[CompoundID] OR 23954[CompoundID] OR 6334[CompoundID] OR 2537[CompoundID] OR 24261[CompoundID] OR 23665760[CompoundID] OR 83975[CompoundID] OR 784[CompoundID] OR 24437[Compo
undID] OR 5360315[CompoundID] OR 311[CompoundID] OR 6549[CompoundID] OR 107689[CompoundID] OR 17100[CompoundID] OR 24976875[CompoundID] OR 6654[CompoundID] OR 71245[CompoundID] OR 6442842[CompoundID]
OR 62334[CompoundID] OR 54698175[CompoundID] OR 6328154[CompoundID] OR 24762[CompoundID] OR 440950[CompoundID] OR 7017[CompoundID] OR 5281873[CompoundID] OR 323[CompoundID] OR 5281167[CompoundID] OR 7
175[CompoundID] OR 7292[CompoundID] OR 6335613[CompoundID] OR 7456[CompoundID] OR 7462[CompoundID]

> <resultIndex>
144

> <resultRange>
1-176

> <textQuery>
7628,244,25059,7618,7641,5053,637511,7714,7762,25429,8842,7794,637566,7843,174,7870,86102,7888,7896,1140,8042,8058,8078,8087,8117,8133,115224,8175,8194,445639,4944,8294,93541,8360,8363,656612,125098,3
352,3303913,64805,31200,1712058,31236,31239,31265,31266,31276,6950273,518659,14896,14798,14829,14830,8635,23266,4284,8693,22311,8759,8785,2723810,8857,3893,9936739,516892,5430,9017,15433,107720,955208
1,164825,10275455,16666,9839306,5282227,23676745,32881,91581,39800,33344,15962220,33528,5365075,62829,162381,517202,6433353,2730,5372405,36081,3120,3017,2969,18827,19518,19658,38283,2758,10112,10340,7
12,5794,3347,104150,2912,2450,40326,40585,517055,10913,108242,62097,41679,54680676,62118,753,1030,23673837,54678504,11442,11463,22230,440917,6054,43234,22629,3039,2735067,6144,702,284,176,91688,22947,
47445,1711973,243,10342051,5281875,3776,6224,104926,8755,338,123622,23954,6334,2537,24261,23665760,83975,784,24437,5360315,311,6549,107689,17100,24976875,6654,71245,6442842,62334,54698175,6328154,2476
2,440950,7017,5281873,323,5281167,7175,7292,6335613,7456,7462

$$$$
5,794
  SciTegic10191915303D

 54 55  0  0  0  0            999 V2000
    6.8690    0.5100    3.0550 O   0  0
    6.7210    2.7250    3.5180 O   0  0
    1.5260    0.0680    1.2850 O   0  0
   -1.1050   -1.1820   -0.8360 O   0  0
   -3.1440   -1.7440   -3.7520 O   0  0
    5.5840    0.8690    3.0550 C   0  0
    5.4920    2.2340    3.3420 C   0  0
    3.1270    0.7320    2.8790 C   0  0
    3.0330    2.1130    3.1680 C   0  0
    4.3990    0.1230    2.8260 C   0  0
    4.2170    2.8500    3.3970 C   0  0
    7.6860    1.6640    3.3440 C   0  0
    1.9180   -0.0720    2.6330 C   0  0
    1.7270    2.7890    3.2340 C   0  0
    1.1330    2.7300    4.6410 C   0  0
    0.3710   -0.6740    0.9630 C   0  0
   -0.2440    3.3890    4.7290 C   0  0
    0.0490   -0.4390   -0.5140 C   0  0
   -1.4980   -1.0390   -2.1820 C   0  0
   -2.7520   -1.8870   -2.4060 C   0  0
   -4.2990   -2.4860   -4.0760 C   0  0
   -4.6210   -2.2520   -5.5510 C   0  0
   -5.8630   -3.0160   -6.0140 C   0  0
   -6.1850   -2.7810   -7.4880 C   0  0
    4.4810   -0.9320    2.6070 H   0  0
    4.1560    3.9060    3.6190 H   0  0
    8.3360    1.8850    2.5080 H   0  0
    8.2460    1.5120    4.2540 H   0  0
    2.1410   -1.1250    2.8130 H   0  0
    1.1060    0.2890    3.2620 H   0  0
    1.0470    2.3360    2.5100 H   0  0
    1.8340    3.8200    2.9020 H   0  0
    1.8170    3.1720    5.3670 H   0  0
    1.0920    1.7010    5.0000 H   0  0
    0.5820   -1.7270    1.1480 H   0  0
   -0.4450   -0.3240    1.5960 H   0  0
   -0.6540    3.3420    5.7380 H   0  0
   -0.9490    2.8980    4.0590 H   0  0
   -0.1870    4.4390    4.4410 H   0  0
   -0.1620    0.6130   -0.6990 H   0  0
    0.8650   -0.7890   -1.1470 H   0  0
   -1.7070    0.0140   -2.3650 H   0  0
   -0.6800   -1.3890   -2.8130 H   0  0
   -2.5430   -2.9400   -2.2230 H   0  0
   -3.5680   -1.5370   -1.7750 H   0  0
   -4.0880   -3.5410   -3.8910 H   0  0
   -5.1130   -2.1390   -3.4430 H   0  0
   -4.7230   -1.1880   -5.7600 H   0  0
   -3.7620   -2.5000   -6.1780 H   0  0
   -5.7600   -4.0800   -5.8050 H   0  0
   -6.7210   -2.7700   -5.3870 H   0  0
   -7.0680   -3.3460   -7.7850 H   0  0
   -6.3590   -1.7230   -7.6820 H   0  0
   -5.3570   -3.1040   -8.1190 H   0  0
  1  6  1  0
  1 12  1  0
  2  7  1  0
  2 12  1  0
  3 13  1  0
  3 16  1  0
  4 18  1  0
  4 19  1  0
  5 20  1  0
  5 21  1  0
  6  7  2  0
  6 10  1  0
  7 11  1  0
  8  9  1  0
  8 10  2  0
  8 13  1  0
  9 11  2  0
  9 14  1  0
 14 15  1  0
 15 17  1  0
 16 18  1  0
 19 20  1  0
 21 22  1  0
 22 23  1  0
 23 24  1  0
 10 25  1  0
 11 26  1  0
 12 27  1  0
 12 28  1  0
 13 29  1  0
 13 30  1  0
 14 31  1  0
 14 32  1  0
 15 33  1  0
 15 34  1  0
 16 35  1  0
 16 36  1  0
 17 37  1  0
 17 38  1  0
 17 39  1  0
 18 40  1  0
 18 41  1  0
 19 42  1  0
 19 43  1  0
 20 44  1  0
 20 45  1  0
 21 46  1  0
 21 47  1  0
 22 48  1  0
 22 49  1  0
 23 50  1  0
 23 51  1  0
 24 52  1  0
 24 53  1  0
 24 54  1  0
M  END
> <Name>
5,794

> <OBJECTID>
9223372642448506891

> <ActiveAidCount>
39

> <AtomChiralCount>
0

> <AtomChiralDefCount>
0

> <AtomChiralUndefCount>
0

> <BondChiralCount>
0

> <BondChiralDefCount>
0

> <BondChiralUndefCount>
0

> <CID>
5794

> <CanonicalSmiles>
CCCCOCCOCCOCC1=CC2=C(C=C1CCC)OCO2

> <Complexity>
312

> <CovalentUnitCount>
1

> <CreateDate>
2004/09/16 00:00

> <HeavyAtomCount>
24

> <HydrogenBondAcceptorCount>
5

> <HydrogenBondDonorCount>
0

> <IUPACName>
5-[2-(2-butoxyethoxy)ethoxymethyl]-6-propyl-1,3-benzodioxole

> <InChI>
InChI=1S/C19H30O5/c1-3-5-7-20-8-9-21-10-11-22-14-17-13-19-18(23-15-24-19)12-16(17)6-4-2/h12-13H,3-11,14-15H2,1-2H3

> <InChIKey>
FIPWRIJSWJWJAI-UHFFFAOYSA-N

> <IsomericSmiles>
CCCCOCCOCCOCC1=CC2=C(C=C1CCC)OCO2

> <IsotopeAtomCount>
0

> <MeSHHeading>
Piperonyl Butoxide

> <MeSHTerm>
Piperonyl Butoxide
Butoxide, Piperonyl

> <MolecularFormula>
C19H30O5

> <MolecularWeight>
338.4

> <PharmAction>
Specialty Uses of Chemicals
Pesticide Synergists
Agrochemicals
Pesticides
Chemical Actions and Uses
Toxic Actions

> <RotatableBondCount>
13

> <Smiles>
O1COc(cc(CCC)c(COCCOCCOCCCC)c2)c12

> <SourceCategory>
Chemical Vendors
Legacy Depositors
Research and Development
Curation Efforts
Governmental Organizations
NIH Initiatives
Subscription Services
Journal Publishers

> <Synonym>
PIPERONYL BUTOXIDE
51-03-6
Butacide
Butocide
Ethanol butoxide
Pyrenone 606
Piperonylbutoxide
6-Propylpiperonyl butyl diethylene glycol ether
5-((2-(2-Butoxyethoxy)ethoxy)methyl)-6-propylbenzo[d][1,3]dioxole
Butyl carbitol 6-propylpiperonyl ether
Butoxide (synergist)
NCI-C02813
2-(2-Butoxyethoxy)ethyl 6-propylpiperonyl ether
FMC 5273
NIA 5273
Caswell No. 670
6-(Propylpiperonyl)butylcarbityl ether
Alleviate
ENT 14,250
UNII-LWK91TU9AH
Piperonyl butoxide [BAN]
NSC 8401
Piperonyl butoxide, technical
CCRIS 522
(Butylcarbityl)(6-propylpiperonyl)ether
1,3-Benzodioxole, 5-[[2-(2-butoxyethoxy)ethoxy]methyl]-6-propyl-
HSDB 1755
Piperonyl butoxyde [ISO-French]
EINECS 200-076-7
LWK91TU9AH
3,4-Methylenedioxy-6-propylbenzyl n-butyl diethyleneglycol ether
EPA Pesticide Chemical Code 067501
BRN 0288063
Piperonyl butoxide in solvent
6-(Propylpiperonyl)-butyl carbityl ether
alpha-(2-(2-n-Butoxyethoxy)-ethoxy)-4,5-methylenedioxy-2-propyltoluene
Butyl-carbityl (6-propylpiperonyl) ether
AI3-14250
Piperonyl butoxide [BSI:ISO]
3,4-Methylendioxy-6-propylbenzyl-n-butyl-diaethylenglykolaether
CHEBI:32687
FIPWRIJSWJWJAI-UHFFFAOYSA-N
1,3-Benzodioxole, 5-((2-(2-butoxyethoxy)ethoxy)methyl)-6-propyl-
MFCD00005842
5-Propyl-4-(2,5,8-trioxa-dodecyl)-1,3-benzodioxole
Butylcarbityl (6-propylpiperonyl) ether
NCGC00090874-02
NCGC00090874-04
AK114177
3,4-Methylenedioxy-6-propylbenzyl n-butyldiethyleneglycol ether
5-[2-(2-Butoxyethoxy)ethoxymethyl]-6-propyl-1,3-benzodioxole
5-Propyl-4-(2,5,8-trioxa-dodecyl)-1,3-benzodioxol [German]
5-((2-(2-Butoxyethoxy)ethoxy)methyl)-6-propyl-1,3-benzodioxole
5-{[2-(2-butoxyethoxy)ethoxy]methyl}-6-propyl-1,3-benzodioxole
(3,4-Methylenedioxy-6-propylbenzyl) (butyl) diethylene glycol ether
3,4-Methylendioxy-6-propylbenzyl-n-butyl-diaethylenglykolaether [German]
alpha-(2-(2-Butoxyethoxy)ethoxy)-4,5-methylenedioxy-2-propyltoluene
DSSTox_CID_1166
Piperonyl butoxide (BAN)
3,4-Methylenedioxy-6-propylbenzyl-n-butyl-diaethylenglykolaether [German]
Toluene, alpha-(2-(2-butoxyethoxy)ethoxy)-4,5-(methylenedioxy)-2-propyl-
DSSTox_RID_75988
DSSTox_GSID_21166
Butoxide, Piperonyl
Q-201588
Piperonyl butoxide, 90%, tech.
5-(2-(2-Butoxyethoxy)ethoxymethyl)-6-propyl-1,3-benzodioxole
5-[[2-(2-Butoxyethoxy)ethoxy]methyl]-6-propyl-1,3-benzodioxole
Raid
5-{[(2-{[2-(butyloxy)ethyl]oxy}ethyl)oxy]methyl}-6-propyl-1,3-benzodioxole
alpha-[2-(2-butoxyethoxy)ethoxy]-4,5-(methylenedioxy)-2-propyltoluene
Piperonyl butoxyde
2-(2-butoxyethoxy)-1-[(6-propyl(2H-benzo[d]1,3-dioxolen-5-yl))methoxy]ethane
CAS-51-03-6
2-(2-Butoxyethoxy)ethyl (6-propylpiperonyl) ether, 4,5-Methylenedioxy-2-propylbenzyldiethyleneglycol butyl ether
Obilique
Pybuthrin
Pyrenon
Synpren-fish
.alpha.(2-(2-Butoxyethoxy)ethoxy)-4,5-methylenedioxy-2-propyltoluene
.alpha.-(2-(2-n-Butoxyethoxy)-ethoxy)-4,5-methylenedioxy-2-propyltoluene
.alpha.-[2-(2-N-Butoxyethoxy)-ethoxy]-4,5-methylenedioxy-2-propyltoluene
.alpha.[2-(2-Butoxyethoxy)ethoxy]-4,5-methylenedioxy-2-propyltoluene
piperonyl-butoxide
Diperonyl butoxide
Rid Mousse (TN)
butylcarbityl(6-propylpiperonyl) ether
Scourge (Salt/Mix)
Para Pio (TN)
PubChem15364
Piperonyl Butoxide (Pbo)
EC 200-076-7
AC1L1L5K
AC1Q6ZT3
SCHEMBL5490
4-19-00-00779 (Beilstein Handbook Reference)
nia 5273
5-Propyl-4-(2,5,8-trioxa-dodecyl)-1,3-benzodioxol
Anvil 2+2 ULV (Salt/Mix)
CHEMBL1201131
DTXSID1021166
KS-00000MEB
NSC8401
BDBM181115
HMS3264A07
US9138393, Piperonyl butoxide
US9144538, Piperonyl butoxide
Anvil 10+10 ULV (Salt/Mix)
3,4-Methylenedioxy-6-propylbenzyl-n-butyl-diaethylenglykolaether
ACM51036
BCP19227
FAC 5273
HY-B1198
NSC-8401
ZINC3875342
Tox21_111034
Tox21_400086
7068AB
LS-150
AKOS015951348
Toluene,5-(methylenedioxy)-2-propyl-
Tox21_111034_1
CCG-213921
CS-4826
DB09350
MCULE-7766634514
NCGC00090874-01
NCGC00090874-03
NCGC00090874-05
NCGC00090874-06
Piperonylbutoxide, technical grade, 90%
1,3-Benzodioxole, 5-((2-(2-butoxyethoxy)ethoxy)methyl)-6-propyl-, mixt. with petroleum distillates and pyrethrins
63993-73-7
AC-11663
AJ-46417
AS-10480
SC-18558
ST075004
AX8061167
Piperonylbutoxide, technical, >=90% (GC)
Propylpiperonyl butyl diethyleneglycol ether
FT-0631218
P0458
ST24044143
WLN: T56 BO DO CHJ G3 H1O2O2O4
C18880
D08383
Piperonyl butoxide 10 microg/mL in Cyclohexane
AB01563216_01
Piperonyl butoxide 10 microg/mL in Acetonitrile
C-36469
Pesticide4_Piperonyl butoxide_C19H30O5_Butacide
Piperonyl butoxide 100 microg/mL in Acetonitrile
SR-01000944266
5-Propyl-4-(2,8-trioxa-dodecyl)-1,3-benzodioxol
Piperonylbutoxide, PESTANAL(R), analytical standard
SR-01000944266-1
1, 5-[[2-(2-butoxyethoxy)ethoxy]methyl]-6-propyl-
4,5-Methylenedioxy-2-propylbenzyldiethylene glycol butyl ether
4,5-Methylenedioxy-2-propylbenzyldiethyleneglycol butyl ether
Benzodioxole, 5-((2-(2-butoxyethoxy)ethoxy)methyl)-6-propyl-
Piperonylbutoxide, certified reference material, TraceCERT(R)
(3,4-Methylenedioxy-6-propylbenzyl) (butyl) diethylene glicol ether
(3,4-methylenedioxy-6-propylbenzyl)(butyl) diethylene glycol ether
3,4-Methylenedioxy-6-propylbenzyl n-butyl diethylene glycol ether
5- ((2-(2-butoxyethoxy)ethoxy)methyl)-6-propyl-1,3-benzodioxole
5-([2-(2-Butoxyethoxy)ethoxy]methyl)-6-propyl-1,3-benzodioxole #
Piperonylbutoxide, British Pharmacopoeia (BP) Reference Standard
(Butylcarbityl)(6-propylpiperonyl) ether 80% and related compounds 20%
alpha-(2-(2-butoxyethoxy)ethoxy)-4,5-methylened ioxy-2-propyltoluene
Toluene, .alpha.-[2-(2-butoxyethoxy)ethoxy]-4,5-(methylenedioxy)-2-propyl-
Vex

> <TPSA>
46.2

> <TotalAidCount>
496

> <TotalFormalCharge>
0

> <XLogP>
3.7

> <database>
PubChem Compound

> <matchingCount>
176

> <primaryID>
5794

> <queryTranslation>
7628[CompoundID] OR 244[CompoundID] OR 25059[CompoundID] OR 7618[CompoundID] OR 7641[CompoundID] OR 5053[CompoundID] OR 637511[CompoundID] OR 7714[CompoundID] OR 7762[CompoundID] OR 25429[CompoundID]
OR 8842[CompoundID] OR 7794[CompoundID] OR 637566[CompoundID] OR 7843[CompoundID] OR 174[CompoundID] OR 7870[CompoundID] OR 86102[CompoundID] OR 7888[CompoundID] OR 7896[CompoundID] OR 1140[CompoundID
] OR 8042[CompoundID] OR 8058[CompoundID] OR 8078[CompoundID] OR 8087[CompoundID] OR 8117[CompoundID] OR 8133[CompoundID] OR 115224[CompoundID] OR 8175[CompoundID] OR 8194[CompoundID] OR 445639[Compou
ndID] OR 4944[CompoundID] OR 8294[CompoundID] OR 93541[CompoundID] OR 8360[CompoundID] OR 8363[CompoundID] OR 656612[CompoundID] OR 125098[CompoundID] OR 3352[CompoundID] OR 3303913[CompoundID] OR 648
05[CompoundID] OR 31200[CompoundID] OR 1712058[CompoundID] OR 31236[CompoundID] OR 31239[CompoundID] OR 31265[CompoundID] OR 31266[CompoundID] OR 31276[CompoundID] OR 6950273[CompoundID] OR 518659[Com
poundID] OR 14896[CompoundID] OR 14798[CompoundID] OR 14829[CompoundID] OR 14830[CompoundID] OR 8635[CompoundID] OR 23266[CompoundID] OR 4284[CompoundID] OR 8693[CompoundID] OR 22311[CompoundID] OR 87
59[CompoundID] OR 8785[CompoundID] OR 2723810[CompoundID] OR 8857[CompoundID] OR 3893[CompoundID] OR 9936739[CompoundID] OR 516892[CompoundID] OR 5430[CompoundID] OR 9017[CompoundID] OR 15433[Compound
ID] OR 107720[CompoundID] OR 9552081[CompoundID] OR 164825[CompoundID] OR 10275455[CompoundID] OR 16666[CompoundID] OR 9839306[CompoundID] OR 5282227[CompoundID] OR 23676745[CompoundID] OR 32881[Compo
undID] OR 91581[CompoundID] OR 39800[CompoundID] OR 33344[CompoundID] OR 15962220[CompoundID] OR 33528[CompoundID] OR 5365075[CompoundID] OR 62829[CompoundID] OR 162381[CompoundID] OR 517202[CompoundI
D] OR 6433353[CompoundID] OR 2730[CompoundID] OR 5372405[CompoundID] OR 36081[CompoundID] OR 3120[CompoundID] OR 3017[CompoundID] OR 2969[CompoundID] OR 18827[CompoundID] OR 19518[CompoundID] OR 19658
[CompoundID] OR 38283[CompoundID] OR 2758[CompoundID] OR 10112[CompoundID] OR 10340[CompoundID] OR 712[CompoundID] OR 5794[CompoundID] OR 3347[CompoundID] OR 104150[CompoundID] OR 2912[CompoundID] OR
2450[CompoundID] OR 40326[CompoundID] OR 40585[CompoundID] OR 517055[CompoundID] OR 10913[CompoundID] OR 108242[CompoundID] OR 62097[CompoundID] OR 41679[CompoundID] OR 54680676[CompoundID] OR 62118[C
ompoundID] OR 753[CompoundID] OR 1030[CompoundID] OR 23673837[CompoundID] OR 54678504[CompoundID] OR 11442[CompoundID] OR 11463[CompoundID] OR 22230[CompoundID] OR 440917[CompoundID] OR 6054[CompoundI
D] OR 43234[CompoundID] OR 22629[CompoundID] OR 3039[CompoundID] OR 2735067[CompoundID] OR 6144[CompoundID] OR 702[CompoundID] OR 284[CompoundID] OR 176[CompoundID] OR 91688[CompoundID] OR 22947[Compo
undID] OR 47445[CompoundID] OR 1711973[CompoundID] OR 243[CompoundID] OR 10342051[CompoundID] OR 5281875[CompoundID] OR 3776[CompoundID] OR 6224[CompoundID] OR 104926[CompoundID] OR 8755[CompoundID] O
R 338[CompoundID] OR 123622[CompoundID] OR 23954[CompoundID] OR 6334[CompoundID] OR 2537[CompoundID] OR 24261[CompoundID] OR 23665760[CompoundID] OR 83975[CompoundID] OR 784[CompoundID] OR 24437[Compo
undID] OR 5360315[CompoundID] OR 311[CompoundID] OR 6549[CompoundID] OR 107689[CompoundID] OR 17100[CompoundID] OR 24976875[CompoundID] OR 6654[CompoundID] OR 71245[CompoundID] OR 6442842[CompoundID]
OR 62334[CompoundID] OR 54698175[CompoundID] OR 6328154[CompoundID] OR 24762[CompoundID] OR 440950[CompoundID] OR 7017[CompoundID] OR 5281873[CompoundID] OR 323[CompoundID] OR 5281167[CompoundID] OR 7
175[CompoundID] OR 7292[CompoundID] OR 6335613[CompoundID] OR 7456[CompoundID] OR 7462[CompoundID]

> <resultIndex>
145

> <resultRange>
1-176

> <textQuery>
7628,244,25059,7618,7641,5053,637511,7714,7762,25429,8842,7794,637566,7843,174,7870,86102,7888,7896,1140,8042,8058,8078,8087,8117,8133,115224,8175,8194,445639,4944,8294,93541,8360,8363,656612,125098,3
352,3303913,64805,31200,1712058,31236,31239,31265,31266,31276,6950273,518659,14896,14798,14829,14830,8635,23266,4284,8693,22311,8759,8785,2723810,8857,3893,9936739,516892,5430,9017,15433,107720,955208
1,164825,10275455,16666,9839306,5282227,23676745,32881,91581,39800,33344,15962220,33528,5365075,62829,162381,517202,6433353,2730,5372405,36081,3120,3017,2969,18827,19518,19658,38283,2758,10112,10340,7
12,5794,3347,104150,2912,2450,40326,40585,517055,10913,108242,62097,41679,54680676,62118,753,1030,23673837,54678504,11442,11463,22230,440917,6054,43234,22629,3039,2735067,6144,702,284,176,91688,22947,
47445,1711973,243,10342051,5281875,3776,6224,104926,8755,338,123622,23954,6334,2537,24261,23665760,83975,784,24437,5360315,311,6549,107689,17100,24976875,6654,71245,6442842,62334,54698175,6328154,2476
2,440950,7017,5281873,323,5281167,7175,7292,6335613,7456,7462

$$$$
5,430
  SciTegic10191915303D

 21 23  0  0  0  0            999 V2000
    2.2050    2.8420   -0.4250 C   0  0
    1.1230    3.3910    0.3120 C   0  0
    0.0260    2.5740    0.6850 C   0  0
    0.0310    1.2080    0.3110 C   0  0
    1.0940    0.6690   -0.4140 C   0  0
    2.1960    1.4720   -0.7930 C   0  0
    0.8840   -0.6420   -0.6580 N   0  0
   -0.3310   -0.8330   -0.0500 C   0  0
   -1.0020   -2.1640   -0.0500 C   0  0
   -0.3110   -3.3750   -0.0500 C   0  0
   -1.4570   -4.6160   -0.0500 S   0  0
   -2.7730   -3.5240   -0.0500 C   0  0
   -2.3670   -2.2150   -0.0500 N   0  0
   -0.8960    0.2600    0.5570 N   0  0
    3.0380    3.4680   -0.7070 H   0  0
    1.1350    4.4350    0.5890 H   0  0
   -0.7980    2.9910    1.2460 H   0  0
    3.0190    1.0540   -1.3530 H   0  0
    0.7620   -3.5160   -0.0500 H   0  0
   -3.8170   -3.8090   -0.0500 H   0  0
   -1.7580    0.3320    1.0460 H   0  0
  1  2  2  0
  1  6  1  0
  2  3  1  0
  3  4  2  0
  4  5  1  0
  4 14  1  0
  5  6  2  0
  5  7  1  0
  7  8  2  0
  8  9  1  0
  8 14  1  0
  9 10  2  0
  9 13  1  0
 10 11  1  0
 11 12  1  0
 12 13  2  0
  1 15  1  0
  2 16  1  0
  3 17  1  0
  6 18  1  0
 10 19  1  0
 12 20  1  0
 14 21  1  0
M  END
> <Name>
5,430

> <OBJECTID>
9223372646743474187

> <ActiveAidCount>
76

> <AtomChiralCount>
0

> <AtomChiralDefCount>
0

> <AtomChiralUndefCount>
0

> <BondChiralCount>
0

> <BondChiralDefCount>
0

> <BondChiralUndefCount>
0

> <CID>
5430

> <CanonicalSmiles>
C1=CC=C2C(=C1)NC(=N2)C3=CSC=N3

> <Complexity>
212

> <CovalentUnitCount>
1

> <CreateDate>
2005/03/25 00:00

> <HeavyAtomCount>
14

> <HydrogenBondAcceptorCount>
3

> <HydrogenBondDonorCount>
1

> <IUPACName>
4-(1H-benzimidazol-2-yl)-1,3-thiazole

> <InChI>
InChI=1S/C10H7N3S/c1-2-4-8-7(3-1)12-10(13-8)9-5-14-6-11-9/h1-6H,(H,12,13)

> <InChIKey>
WJCNZQLZVWNLKY-UHFFFAOYSA-N

> <IsomericSmiles>
C1=CC=C2C(=C1)NC(=N2)C3=CSC=N3

> <IsotopeAtomCount>
0

> <MeSHHeading>
Thiabendazole

> <MeSHTerm>
2-(4'-Thiazolyl)Benzimidazole
Thibendole
Mintesol
Thiabendazole
Tiabendazol
Omnizole
Mintezol

> <MolecularFormula>
C10H7N3S

> <MolecularWeight>
201.25

> <PharmAction>
Anti-Infective Agents
Pharmacologic Actions
Anthelmintics
Chemical Actions and Uses
Therapeutic Uses
Antiparasitic Agents

> <RotatableBondCount>
1

> <Smiles>
c1cc(nc([nH]2)c3ncsc3)c2cc1

> <SourceCategory>
Chemical Vendors
Legacy Depositors
Research and Development
Curation Efforts
Governmental Organizations
NIH Initiatives
Subscription Services
Journal Publishers

> <Synonym>
thiabendazole
148-79-8
Tiabendazole
Mintezol
2-(4-Thiazolyl)benzimidazole
Equizole
Tiabendazol
Mintesol
Omnizole
Thibenzole
Thiabendazol
Bovizole
Minzolum
Thiabenzole
Thibenzol
Lombristop
Bioguard
Eprofil
Mertect
Mycozol
Nemapan
Polival
Tebuzate
Thiaben
Tiabenda
Triasox
Mertec
Testo
Tobaz
Tbdz
Thibenzole att
APL-luster
Top Form Wormer
Cropasal
Sistesan
Thibendole
Ormogal
Storite
Thibenzole 200
Tecto rph
Hokustar HP
4-(1H-Benzo[d]imidazol-2-yl)thiazole
Mertect 160
Tecto 10P
Tecto 40F
Tecto 60
Pitrizet
Sanaizol 100
2-(1,3-Thiazol-4-yl)-1H-benzimidazole
Chemviron TK 100
Thiabendazolum
Thiabendole
Tiabendazolum
Biogard
Drawipas
Mintezole
1H-Benzimidazole, 2-(4-thiazolyl)-
Tecto
Mertect lsp
E-Z-Ex
Equizole A
TBZ 60W
Captan T
Metasol TK 100
Helmindrax octelmin
Thiabenzazole
Arbotect
Thiprazole
Tresaderm
Tubazole
2-Thiazole-4-ylbenzimidazole
Hymush
Nemacin
Mertect 340f
4-(2-Benzimidazolyl)thiazole
2-(4-Thiazolyl)-1H-benzimidazole
Metasol TK-100
Syntol M100
MK 360
Equivet TZ
Tecto B
Tibimix 20
2-(Thiazol-4-yl)benzimidazole
2-(1,3-Thiazol-4-yl)benzimidazole
Thiabendazole [BSI:ISO]
TBZ 6
Benzimidazole, 2-(4-thiazolyl)-
RTU Flowable Fungicide
2-(4'-Thiazolyl)benzimidazole
Mintezol (TN)
Metasol tk 10
Thiabendazole [USAN:BAN]
Tiabendazolum [INN-Latin]
TBZ-6
Thiabendazole (USP)
2-[4-Thiazoly]benzimidazole
MK-360
Caswell No. 849A
Tiabendazole (JAN/INN)
4-(1H-benzimidazol-2-yl)thiazole
1yvm
Tiabendazol [INN-Spanish, French]
G 491
UNII-N1Q45E87DT
2-(1,3-thiazol-4-yl)-1H-1,3-benzodiazole
5-(4-Thiazolyl)benzimidazole
CCRIS 4510
RPH
HSDB 2027
2-Thiazol-4-yl-1H-benzoimidazole
EINECS 205-725-8
NSC 90507
CHEMBL625
EPA Pesticide Chemical Code 060101
NSC 525040
BRN 0611403
4-(1H-benzimidazol-2-yl)-1,3-thiazole
AI3-50598
MLS000053094
N1Q45E87DT
CHEBI:45979
WJCNZQLZVWNLKY-UHFFFAOYSA-N
NSC90507
MFCD00005587
NSC525040
2-(4-THIAZOLYL)-BENZIMIDAZOLE
NCGC00016410-06
NCGC00016410-13
CAS-148-79-8
CPD000058170
E233
SMR000058170
2-(1,3-thiazol-4-yl)-1H-benzoimidazole
DSSTox_CID_1337
DSSTox_RID_76091
DSSTox_GSID_21337
4-benzimidazol-2-yl-1,3-thiazole
WLN: T56 BM DNJ C-ET5N CSJ
Metasol TK 25
SR-01000000188
Thiabendazole [USAN:USP]
Tiabendazolo
2-(4-Thiazoly)-benzimidazole
Mintezol;Equizole
Tiabendazole, INN
2-(4-thiazolyl)-1h-benzoimidazole
Thiabendazole(usan)
Prestwick_813
Thiabendazole W.P.
Tiabendazole [INN]
Thiabendazole, 98%
Spectrum_000039
Opera_ID_336
AC1L1KCB
Prestwick0_000524
Prestwick1_000524
Prestwick2_000524
Prestwick3_000524
Spectrum2_001331
Spectrum3_001407
Spectrum4_000354
Spectrum5_001009
AC1Q4W1V
NCIOpen2_005709
SCHEMBL19842
BSPBio_000507
BSPBio_003054
KBioGR_000787
KBioSS_000399
2(4-thiazolyl)-benzimidazole
MLS000069718
BIDD:ER0372
DivK1c_000072
SPECTRUM1500570
SPBio_001481
SPBio_002428
ACMC-209d18
BPBio1_000559
GTPL7304
DTXSID0021337
Thiabendazole, >=99%, powder
CTK5H6812
HMS500D14
KBio1_000072
KBio2_000399
KBio2_002967
KBio2_005535
KBio3_002274
KS-00000ZCK
ZINC73711
NINDS_000072
HMS1569J09
HMS1921E05
HMS2092M07
HMS2096J09
HMS2230F20
HMS3259E20
HMS3372E11
HMS3655E08
HMS3713J09
Pharmakon1600-01500570
ALBB-023635
BCP19179
HY-B0263
Tox21_110427
Tox21_202397
Tox21_300970
ANW-21162
BDBM50121347
CCG-39633
LS-864
NSC-90507
NSC757347
s1739
SBB007366
STK394289
AKOS000120940
Tox21_110427_1
CS-2250
DB00730
MCULE-3720823189
NC00593
NSC-525040
NSC-757347
RL01881
RTR-035755
SDCCGMLS-0002984.P003
IDI1_000072
NCGC00016410-01
NCGC00016410-02
NCGC00016410-03
NCGC00016410-04
NCGC00016410-05
NCGC00016410-07
NCGC00016410-08
NCGC00016410-09
NCGC00016410-10
NCGC00016410-11
NCGC00016410-12
NCGC00016410-14
NCGC00016410-15
NCGC00016410-18
NCGC00021671-04
NCGC00021671-05
NCGC00021671-06
NCGC00021671-07
NCGC00021671-08
NCGC00021671-09
NCGC00021671-10
NCGC00254873-01
NCGC00259946-01
Thiabendazole 100 microg/mL in Methanol
2-[35S]thiazol-4-yl-1H-benzoimidazole
AC-10139
AJ-10296
AN-43996
BAS 00600238
NCI60_004280
NCI60_042006
SAM002564239
SC-80172
ST023311
ZB002645
MLS-0002984.P004
SBI-0051531.P003
AB2000263
Thiabendazole 10 microg/mL in Acetonitrile
TL8001064
TR-035755
AB00052107
FT-0608694
R1124
ST24028725
SW196947-3
2-(1,3-Thiazol-4-yl)-1H-benzimidazole #
Thiabendazole, BAN, BSI, ISO, JMAF, USAN
48T798
C07131
D00372
AB00052107_17
AB00052107_18
Thiabendazole, PESTANAL(R), analytical standard
I06-0809
SR-01000000188-2
SR-01000000188-4
SR-01000000188-5
W-108097
BRD-K77695569-001-05-2
BRD-K77695569-001-16-9
BRD-K77695569-001-28-4
A0920/0043056
Thiabendazole, certified reference material, TraceCERT(R)
Thiabendazole, BioReagent, plant cell culture tested, powder
Tiabendazole, European Pharmacopoeia (EP) Reference Standard
Thiabendazole, United States Pharmacopeia (USP) Reference Standard
Thiabendazole, Pharmaceutical Secondary Standard; Certified Reference Material
93030-56-9
98002-42-7

> <TPSA>
69.8

> <TotalAidCount>
1787

> <TotalFormalCharge>
0

> <XLogP>
2.5

> <database>
PubChem Compound

> <matchingCount>
176

> <primaryID>
5430

> <queryTranslation>
7628[CompoundID] OR 244[CompoundID] OR 25059[CompoundID] OR 7618[CompoundID] OR 7641[CompoundID] OR 5053[CompoundID] OR 637511[CompoundID] OR 7714[CompoundID] OR 7762[CompoundID] OR 25429[CompoundID]
OR 8842[CompoundID] OR 7794[CompoundID] OR 637566[CompoundID] OR 7843[CompoundID] OR 174[CompoundID] OR 7870[CompoundID] OR 86102[CompoundID] OR 7888[CompoundID] OR 7896[CompoundID] OR 1140[CompoundID
] OR 8042[CompoundID] OR 8058[CompoundID] OR 8078[CompoundID] OR 8087[CompoundID] OR 8117[CompoundID] OR 8133[CompoundID] OR 115224[CompoundID] OR 8175[CompoundID] OR 8194[CompoundID] OR 445639[Compou
ndID] OR 4944[CompoundID] OR 8294[CompoundID] OR 93541[CompoundID] OR 8360[CompoundID] OR 8363[CompoundID] OR 656612[CompoundID] OR 125098[CompoundID] OR 3352[CompoundID] OR 3303913[CompoundID] OR 648
05[CompoundID] OR 31200[CompoundID] OR 1712058[CompoundID] OR 31236[CompoundID] OR 31239[CompoundID] OR 31265[CompoundID] OR 31266[CompoundID] OR 31276[CompoundID] OR 6950273[CompoundID] OR 518659[Com
poundID] OR 14896[CompoundID] OR 14798[CompoundID] OR 14829[CompoundID] OR 14830[CompoundID] OR 8635[CompoundID] OR 23266[CompoundID] OR 4284[CompoundID] OR 8693[CompoundID] OR 22311[CompoundID] OR 87
59[CompoundID] OR 8785[CompoundID] OR 2723810[CompoundID] OR 8857[CompoundID] OR 3893[CompoundID] OR 9936739[CompoundID] OR 516892[CompoundID] OR 5430[CompoundID] OR 9017[CompoundID] OR 15433[Compound
ID] OR 107720[CompoundID] OR 9552081[CompoundID] OR 164825[CompoundID] OR 10275455[CompoundID] OR 16666[CompoundID] OR 9839306[CompoundID] OR 5282227[CompoundID] OR 23676745[CompoundID] OR 32881[Compo
undID] OR 91581[CompoundID] OR 39800[CompoundID] OR 33344[CompoundID] OR 15962220[CompoundID] OR 33528[CompoundID] OR 5365075[CompoundID] OR 62829[CompoundID] OR 162381[CompoundID] OR 517202[CompoundI
D] OR 6433353[CompoundID] OR 2730[CompoundID] OR 5372405[CompoundID] OR 36081[CompoundID] OR 3120[CompoundID] OR 3017[CompoundID] OR 2969[CompoundID] OR 18827[CompoundID] OR 19518[CompoundID] OR 19658
[CompoundID] OR 38283[CompoundID] OR 2758[CompoundID] OR 10112[CompoundID] OR 10340[CompoundID] OR 712[CompoundID] OR 5794[CompoundID] OR 3347[CompoundID] OR 104150[CompoundID] OR 2912[CompoundID] OR
2450[CompoundID] OR 40326[CompoundID] OR 40585[CompoundID] OR 517055[CompoundID] OR 10913[CompoundID] OR 108242[CompoundID] OR 62097[CompoundID] OR 41679[CompoundID] OR 54680676[CompoundID] OR 62118[C
ompoundID] OR 753[CompoundID] OR 1030[CompoundID] OR 23673837[CompoundID] OR 54678504[CompoundID] OR 11442[CompoundID] OR 11463[CompoundID] OR 22230[CompoundID] OR 440917[CompoundID] OR 6054[CompoundI
D] OR 43234[CompoundID] OR 22629[CompoundID] OR 3039[CompoundID] OR 2735067[CompoundID] OR 6144[CompoundID] OR 702[CompoundID] OR 284[CompoundID] OR 176[CompoundID] OR 91688[CompoundID] OR 22947[Compo
undID] OR 47445[CompoundID] OR 1711973[CompoundID] OR 243[CompoundID] OR 10342051[CompoundID] OR 5281875[CompoundID] OR 3776[CompoundID] OR 6224[CompoundID] OR 104926[CompoundID] OR 8755[CompoundID] O
R 338[CompoundID] OR 123622[CompoundID] OR 23954[CompoundID] OR 6334[CompoundID] OR 2537[CompoundID] OR 24261[CompoundID] OR 23665760[CompoundID] OR 83975[CompoundID] OR 784[CompoundID] OR 24437[Compo
undID] OR 5360315[CompoundID] OR 311[CompoundID] OR 6549[CompoundID] OR 107689[CompoundID] OR 17100[CompoundID] OR 24976875[CompoundID] OR 6654[CompoundID] OR 71245[CompoundID] OR 6442842[CompoundID]
OR 62334[CompoundID] OR 54698175[CompoundID] OR 6328154[CompoundID] OR 24762[CompoundID] OR 440950[CompoundID] OR 7017[CompoundID] OR 5281873[CompoundID] OR 323[CompoundID] OR 5281167[CompoundID] OR 7
175[CompoundID] OR 7292[CompoundID] OR 6335613[CompoundID] OR 7456[CompoundID] OR 7462[CompoundID]

> <resultIndex>
146

> <resultRange>
1-176

> <textQuery>
7628,244,25059,7618,7641,5053,637511,7714,7762,25429,8842,7794,637566,7843,174,7870,86102,7888,7896,1140,8042,8058,8078,8087,8117,8133,115224,8175,8194,445639,4944,8294,93541,8360,8363,656612,125098,3
352,3303913,64805,31200,1712058,31236,31239,31265,31266,31276,6950273,518659,14896,14798,14829,14830,8635,23266,4284,8693,22311,8759,8785,2723810,8857,3893,9936739,516892,5430,9017,15433,107720,955208
1,164825,10275455,16666,9839306,5282227,23676745,32881,91581,39800,33344,15962220,33528,5365075,62829,162381,517202,6433353,2730,5372405,36081,3120,3017,2969,18827,19518,19658,38283,2758,10112,10340,7
12,5794,3347,104150,2912,2450,40326,40585,517055,10913,108242,62097,41679,54680676,62118,753,1030,23673837,54678504,11442,11463,22230,440917,6054,43234,22629,3039,2735067,6144,702,284,176,91688,22947,
47445,1711973,243,10342051,5281875,3776,6224,104926,8755,338,123622,23954,6334,2537,24261,23665760,83975,784,24437,5360315,311,6549,107689,17100,24976875,6654,71245,6442842,62334,54698175,6328154,2476
2,440950,7017,5281873,323,5281167,7175,7292,6335613,7456,7462

$$$$
5,053
  SciTegic10191915303D

 51 53  0  0  1  0            999 V2000
   -0.2750    0.8140    0.1720 O   0  0
    0.7990    1.3530    2.0630 O   0  0
   -0.0390   -0.7770   -3.7150 O   0  0
   -2.5250    0.2680    2.3360 C   0  0
   -1.5840    1.4340    2.0860 C   0  0  3  0  0  0
   -1.8260    0.9490    3.5000 C   0  0  3  0  0  0
   -0.2280    1.1970    1.4450 C   0  0
   -2.6130    1.8240    4.4590 C   0  0
   -4.0160    0.5180    2.1270 C   0  0
   -2.0640   -1.1410    1.9730 C   0  0
   -1.9670    2.6330    5.3150 C   0  0
    1.0100    0.5210   -0.3520 C   0  0
    0.8770    0.0640   -1.7890 C   0  0
    1.2640   -0.4300   -3.9280 C   0  0
    1.8630    0.0920   -2.7750 C   0  0
   -0.2600   -0.4710   -2.4040 C   0  0
   -2.7790    3.4690    6.2680 C   0  0
   -0.4610    2.6600    5.2790 C   0  0
    1.9280   -0.6090   -5.2750 C   0  0
    2.7170   -1.8690   -5.2750 C   0  0
    2.0590   -3.1110   -5.2750 C   0  0
    4.1210   -1.8180   -5.2750 C   0  0
    2.8050   -4.3030   -5.2750 C   0  0
    4.8670   -3.0100   -5.2750 C   0  0
    4.2110   -4.2520   -5.2750 C   0  0
   -2.0470    2.3810    1.8110 H   0  0
   -1.0160    0.3930    3.9710 H   0  0
   -3.6890    1.7500    4.4020 H   0  0
   -4.2690    1.5700    2.2360 H   0  0
   -4.6050   -0.0450    2.8500 H   0  0
   -4.3220    0.2010    1.1290 H   0  0
   -1.0170   -1.3030    2.2270 H   0  0
   -2.1820   -1.3200    0.9040 H   0  0
   -2.6560   -1.8890    2.5020 H   0  0
    1.4470   -0.2790    0.2440 H   0  0
    1.6110    1.4300   -0.3130 H   0  0
    2.8810    0.4410   -2.6720 H   0  0
   -1.2090   -0.6270   -1.9080 H   0  0
   -3.7480    3.0350    6.5080 H   0  0
   -2.9530    4.4550    5.8380 H   0  0
   -2.2320    3.6040    7.2010 H   0  0
   -0.0620    1.7580    5.7440 H   0  0
   -0.1170    2.7660    4.2500 H   0  0
   -0.0940    3.5180    5.8440 H   0  0
    2.5900    0.2340   -5.4690 H   0  0
    1.1640   -0.6580   -6.0530 H   0  0
    0.9790   -3.1580   -5.2750 H   0  0
    4.6330   -0.8670   -5.2750 H   0  0
    2.2990   -5.2560   -5.2750 H   0  0
    5.9470   -2.9710   -5.2750 H   0  0
    4.7830   -5.1660   -5.2750 H   0  0
  1  7  1  0
  1 12  1  0
  2  7  2  0
  3 14  1  0
  3 16  1  0
  4  5  1  0
  4  6  1  0
  4  9  1  0
  4 10  1  0
  5  6  1  0
  5  7  1  0
  6  8  1  0
  8 11  2  0
 11 17  1  0
 11 18  1  0
 12 13  1  0
 13 15  1  0
 13 16  2  0
 14 15  2  0
 14 19  1  0
 19 20  1  0
 20 21  2  0
 20 22  1  0
 21 23  1  0
 22 24  2  0
 23 25  2  0
 24 25  1  0
  5 26  1  0
  6 27  1  0
  8 28  1  0
  9 29  1  0
  9 30  1  0
  9 31  1  0
 10 32  1  0
 10 33  1  0
 10 34  1  0
 12 35  1  0
 12 36  1  0
 15 37  1  0
 16 38  1  0
 17 39  1  0
 17 40  1  0
 17 41  1  0
 18 42  1  0
 18 43  1  0
 18 44  1  0
 19 45  1  0
 19 46  1  0
 21 47  1  0
 22 48  1  0
 23 49  1  0
 24 50  1  0
 25 51  1  0
M  END
> <Name>
5,053

> <OBJECTID>
9223372651038441483

> <ActiveAidCount>
27

> <AtomChiralCount>
2

> <AtomChiralDefCount>
0

> <AtomChiralUndefCount>
2

> <BondChiralCount>
0

> <BondChiralDefCount>
0

> <BondChiralUndefCount>
0

> <CID>
5053

> <CanonicalSmiles>
CC(=CC1C(C1(C)C)C(=O)OCC2=COC(=C2)CC3=CC=CC=C3)C

> <Complexity>
497

> <CovalentUnitCount>
1

> <CreateDate>
2005/03/25 00:00

> <HeavyAtomCount>
25

> <HydrogenBondAcceptorCount>
3

> <HydrogenBondDonorCount>
0

> <IUPACName>
(5-benzylfuran-3-yl)methyl 2,2-dimethyl-3-(2-methylprop-1-enyl)cyclopropane-1-carboxylate

> <InChI>
InChI=1S/C22H26O3/c1-15(2)10-19-20(22(19,3)4)21(23)25-14-17-12-18(24-13-17)11-16-8-6-5-7-9-16/h5-10,12-13,19-20H,11,14H2,1-4H3

> <InChIKey>
VEMKTZHHVJILDY-UHFFFAOYSA-N

> <IsomericSmiles>
CC(=CC1C(C1(C)C)C(=O)OCC2=COC(=C2)CC3=CC=CC=C3)C

> <IsotopeAtomCount>
0

> <MeSHHeading>
resmethrin

> <MeSHTerm>
resmethrin
(5-benzyl-3-furyl)methyl 2,2-dimethyl-3-(2-methylpropenyl)cyclopropemecarboxylate
Scourge

> <MolecularFormula>
C22H26O3

> <MolecularWeight>
338.4

> <PharmAction>
Chemical Actions and Uses
Insecticides
Pesticides
Agrochemicals
Specialty Uses of Chemicals
Toxic Actions

> <RotatableBondCount>
7

> <Smiles>
O(Cc(co1)cc1Cc2ccccc2)C(C3C(\C=C(/C)\C)C3(C)C)=O

> <SourceCategory>
Legacy Depositors
Chemical Vendors
Curation Efforts
Governmental Organizations
NIH Initiatives
Subscription Services
Journal Publishers
Research and Development

> <Synonym>
resmethrin
10453-86-8
Benzofuroline
For-syn
Benzyfuroline
Penncapthrin
Pyrethroids
Resmethrine
Chryson
Chrysron
Crossfire
Enforcer
Isathrine
Premgard
Pyresthrin
Synthrin
Resmethrin [ANSI]
Bioresmethrine
Caswell No. 083E
Resbuthrin
SB Pennick 1382
Penick 1382
Resmetrina [Portuguese]
ARI-B
Resmethrine [ISO-French]
S.B. Penick 1382
d-trans-Resmethrin
5-Benzylfurfuryl chrysanthemate
Bioresmethrin (d trans isomer)
CCRIS 2501
NRDC 104
HSDB 1516
OMS-1206
SBP-1382
EINECS 233-940-7
ENT 27474
FMC 17370
NIA 17370
EPA Pesticide Chemical Code 097801
NSC 195022
Combat White Fly Insecticide
AI3-27474
CHEBI:8811
NRDC 107
SBP-1390
5-Benzyl-3-furylmethyl(+-)-cis,trans-chrysanthemate
FMC 18739
NIA-18739
(5-(Phenylmethyl)-3-furanyl)methyl 2,2-dimethyl-3-(2-methyl-1-propenyl)cyclopropanecarboxylate
5-Benzyl-3-furylmethyl (+-)-cis-trans-chrysanthemate
5-Benzyl-3-furylmethyl (1RS)-cis,trans-chrysanthemate
5-Benzyl-3-furylmethyl (1RS,3RS;1RS,3SR)-2,2-dimethyl-3-(2-methylprop-1-enyl)cyclopropanecarboxylate
Dimethyl 3-(2-methyl-1-propenyl)cyclopropanecarboxylate
RU-11484
DSSTox_CID_2253
5-Benzyl-3-furylmethyl(+)-trans-chrysanthemate
(5-Benzyl-3-furyl) methyl-2,2-dimethyl-3-(2-methylpropenyl)-cyclopropanecarboxylate
(5-benzyl-3-furyl)methyl 2,2-dimethyl-3-(2-methylprop-1-en-1-yl)cyclopropanecarboxylate
(5-Benzyl-3-furyl)methyl 2,2-dimethyl-3-(2-methylpropenyl)cyclopropanecarboxylate
(5-Phenylmethyl-3-furan)methyl-2,2-dimethyl-3-(2-methyl-1-propenyl)cyclopropane carboxylate
Cyclopropanecarboxylic acid, 2,2-dimethyl-3-(2-methylpropenyl)-, (5-benzyl-3-furyl)methyl ester
DSSTox_RID_76529
Bioresmethhrin
Bioresmetrina
DSSTox_GSID_22253
(5-(Phenylmethyl)-3-furanyl)methyl 2,2-dimethyl-3-furylmethyl 2,2-dimethyl-3-(2-methylpropenyl)cyclopropanecarboxylate
5-Benzyl-3-furylmethyl (1RS)-cis-trans-2,2-dimethyl-3-(2-methylprop-1-enyl)cyclopropanecarboxylate
Cyclopropanecarboxylic acid, 2,2-dimethyl-3-(2-methyl-1-propenyl)-, (5-(phenylmethyl)-3-furanyl)methyl ester
Cyclopropanecarboxylic acid, 2,2-dimethyl-3-(2-methyl-1-propenyl)-, [5-(phenylmethyl)-3-furanyl]methyl ester
Cyclopropanecarboxylic acid, 2,2-dimethyl-3-(2-methylpropenyl)-, (4-(2-benzyl)furyl) methyl ester
5-Benzyl-3-furylmethyl (+-)-cis,trans-chrysanthemate
d-trans-Chrysron
Resmetrina
Bioresmethrin [INN]
(5-Benzyl-3-furyl)methyl (+)-trans-2,2-dimethyl-3-(2-methylpropenyl)cyclopropanecarboxylate
(5-benzylfuran-3-yl)methyl 2,2-dimethyl-3-(2-methylprop-1-en-1-yl)cyclopropanecarboxylate
(5-benzylfuran-3-yl)methyl 2,2-dimethyl-3-(2-methylprop-1-enyl)cyclopropane-1-carboxylate
Penick 1390
(5-(Phenylmethyl)-3-furanyl)methyl-2,2-dimethyl-3-(2-methyl-1-propenyl)cyclopropanecarboxylate
Bioresmethrine [French]
Bioresmethrinum [Latin]
Bioresmetrina [Spanish]
Cyclopropanecarboxylic acid, 2,2-dimethyl-3-(2-methyl-1-propenyl)-, (5-(phenylmethyl)-3-furanyl)methyl ester, cis,trans-(+/-)-
Cyclopropanecarboxylic acid, 2,2-dimethyl-3-(2-methylpropenyl)-, (5-benzyl-3-furyl)methyl ester, d-trans-
Resmethrin [ISO]
Pyrethroid NRDC 107
CAS-10453-86-8
Bioresmethrin [BSI:ISO]
Bioresmetrina [Portuguese]
Bioresmethrine [ISO-French]
CCRIS 5401
Biobenzylfuroline
EINECS 249-014-0
NCGC00163786-03
Cyclopropanecarboxylic acid, 2,2-dimethyl-3-(2-methyl-1-propenyl)-, (5-(phenylmethyl)-3-furanyl)methyl ester, (1R-trans)-
Cyclopropanecarboxylic acid, 2,2-dimethyl-3-(2-methyl-1-propenyl)-, [5-(phenylmethyl)-3-furanyl]methyl ester, (1R-trans)-
Durekyl (TN)
Ectokyl (TN)
5-Benzyl-3-furylmethyl-d-trans-crysanthemate
AI 3-27662
d-trans-(5-Benzyl-3-furyl)methyl chrysanthemate
Penick SBP 1382
AC1L1JIC
d-trans-((5-Benzyl-3-furyl)methyl)chrysanthemumate
AC1Q65XI
(5-benzyl-3-furyl)methyl-2,2-dimethyl-3-(2-methyl-1-propen-1-yl)cyclopropancarboxylat
SCHEMBL27565
MLS004712088
CHEMBL1879822
DTXSID7022253
CTK4H5323
VEMKTZHHVJILDY-UHFFFAOYSA-
5-Benzyl-3-furylmethyl (1R,3R)-2,2-dimethyl-3-(2-methylprop-1-enyl)cyclopropanecarboxylate
VEMKTZHHVJILDY-UHFFFAOYSA-N
3-Furanmethanol, 5-benzyl-, 2,2-dimethyl-3-(2-methylpropenyl)cyclopropanecarboxylate, t-(+)-
5-Benzyl-3-furylmethyl (1R)-trans-2,2-dimethyl-3-(2-mthylprop-1-enyl)cyclopropanecarboxylate
Cyclopropanecarboxylic acid, 2,2-dimethyl-3-(2-methyl-1-propenyl)-, [5-(phenylmethyl)-3-furanyl]methyl ester, (1R,3R)-
5-Benzyl-3-furylmethyl (1RS,3RS
Tox21_202138
Tox21_300920
HSCI1_000127
AKOS003390748
MCULE-6501647763
Resmethrin 10 microg/mL in Cyclohexane
NCGC00163786-01
NCGC00163786-02
NCGC00163786-04
NCGC00163786-05
NCGC00254823-01
NCGC00259687-01
(5-(Phenylmethyl)-3-furanyl)methyl 2,2-dimethyl-3-(2-methyl-1-propenyl)cyclopropanecarboxylate (9CI)
LS-58675
LS-58679
LS-58680
M878
Resmethrin 100 microg/mL in Acetonitrile
SMR000778072
TR-001001
285-EP2281812A1
285-EP2305662A1
285-EP2377845A1
544-EP2274983A1
544-EP2275422A1
544-EP2280009A1
544-EP2305662A1
544-EP2308857A1
544-EP2308858A1
544-EP2311816A1
544-EP2311817A1
544-EP2314583A1
Resmethrin, PESTANAL(R), analytical standard
C10991
D08475
J-001193
BRD-A83431637-001-01-3
BRD-A83431637-001-02-1
1RS,3SR)-2,2-dimethyl-3-(2-methylprop-1-enyl)cyclopropanecarboxylate
(5-benzyl-3-furyl)methyl 2,2-dimethyl-3-(2-methylprop-1-enyl)cyclopropanecarboxylate
(5-benzylfuran-3-yl)methyl 2,2-dimethyl-3-(2-methylprop-1-enyl)cyclopropanecarboxylate
[5-(phenylmethyl)furan-3-yl]methyl 2,2-dimethyl-3-(2-methylprop-1-enyl)cycloprop
(1R trans)-2,2-Dimethyl-3-(2-methyl-1-propenyl)cyclopropanecarboxylic acid [5-(phenylmethyl)-3-furanyl] methyl ester
Cyclopropanecarboxylicacid, 2,2-dimethyl-3-(2-methyl-1-propen-1-yl)-,[5-(phenylmethyl)-3-furanyl]methyl ester, (1R,3S)-
InChI=1/C22H26O3/c1-15(2)10-19-20(22(19,3)4)21(23)25-14-17-12-18(24-13-17)11-16-8-6-5-7-9-16/h5-10,12-13,19-20H,11,14H2,1-4H3

> <TPSA>
39.4

> <TotalAidCount>
294

> <TotalFormalCharge>
0

> <XLogP>
6.1

> <database>
PubChem Compound

> <matchingCount>
176

> <primaryID>
5053

> <queryTranslation>
7628[CompoundID] OR 244[CompoundID] OR 25059[CompoundID] OR 7618[CompoundID] OR 7641[CompoundID] OR 5053[CompoundID] OR 637511[CompoundID] OR 7714[CompoundID] OR 7762[CompoundID] OR 25429[CompoundID]
OR 8842[CompoundID] OR 7794[CompoundID] OR 637566[CompoundID] OR 7843[CompoundID] OR 174[CompoundID] OR 7870[CompoundID] OR 86102[CompoundID] OR 7888[CompoundID] OR 7896[CompoundID] OR 1140[CompoundID
] OR 8042[CompoundID] OR 8058[CompoundID] OR 8078[CompoundID] OR 8087[CompoundID] OR 8117[CompoundID] OR 8133[CompoundID] OR 115224[CompoundID] OR 8175[CompoundID] OR 8194[CompoundID] OR 445639[Compou
ndID] OR 4944[CompoundID] OR 8294[CompoundID] OR 93541[CompoundID] OR 8360[CompoundID] OR 8363[CompoundID] OR 656612[CompoundID] OR 125098[CompoundID] OR 3352[CompoundID] OR 3303913[CompoundID] OR 648
05[CompoundID] OR 31200[CompoundID] OR 1712058[CompoundID] OR 31236[CompoundID] OR 31239[CompoundID] OR 31265[CompoundID] OR 31266[CompoundID] OR 31276[CompoundID] OR 6950273[CompoundID] OR 518659[Com
poundID] OR 14896[CompoundID] OR 14798[CompoundID] OR 14829[CompoundID] OR 14830[CompoundID] OR 8635[CompoundID] OR 23266[CompoundID] OR 4284[CompoundID] OR 8693[CompoundID] OR 22311[CompoundID] OR 87
59[CompoundID] OR 8785[CompoundID] OR 2723810[CompoundID] OR 8857[CompoundID] OR 3893[CompoundID] OR 9936739[CompoundID] OR 516892[CompoundID] OR 5430[CompoundID] OR 9017[CompoundID] OR 15433[Compound
ID] OR 107720[CompoundID] OR 9552081[CompoundID] OR 164825[CompoundID] OR 10275455[CompoundID] OR 16666[CompoundID] OR 9839306[CompoundID] OR 5282227[CompoundID] OR 23676745[CompoundID] OR 32881[Compo
undID] OR 91581[CompoundID] OR 39800[CompoundID] OR 33344[CompoundID] OR 15962220[CompoundID] OR 33528[CompoundID] OR 5365075[CompoundID] OR 62829[CompoundID] OR 162381[CompoundID] OR 517202[CompoundI
D] OR 6433353[CompoundID] OR 2730[CompoundID] OR 5372405[CompoundID] OR 36081[CompoundID] OR 3120[CompoundID] OR 3017[CompoundID] OR 2969[CompoundID] OR 18827[CompoundID] OR 19518[CompoundID] OR 19658
[CompoundID] OR 38283[CompoundID] OR 2758[CompoundID] OR 10112[CompoundID] OR 10340[CompoundID] OR 712[CompoundID] OR 5794[CompoundID] OR 3347[CompoundID] OR 104150[CompoundID] OR 2912[CompoundID] OR
2450[CompoundID] OR 40326[CompoundID] OR 40585[CompoundID] OR 517055[CompoundID] OR 10913[CompoundID] OR 108242[CompoundID] OR 62097[CompoundID] OR 41679[CompoundID] OR 54680676[CompoundID] OR 62118[C
ompoundID] OR 753[CompoundID] OR 1030[CompoundID] OR 23673837[CompoundID] OR 54678504[CompoundID] OR 11442[CompoundID] OR 11463[CompoundID] OR 22230[CompoundID] OR 440917[CompoundID] OR 6054[CompoundI
D] OR 43234[CompoundID] OR 22629[CompoundID] OR 3039[CompoundID] OR 2735067[CompoundID] OR 6144[CompoundID] OR 702[CompoundID] OR 284[CompoundID] OR 176[CompoundID] OR 91688[CompoundID] OR 22947[Compo
undID] OR 47445[CompoundID] OR 1711973[CompoundID] OR 243[CompoundID] OR 10342051[CompoundID] OR 5281875[CompoundID] OR 3776[CompoundID] OR 6224[CompoundID] OR 104926[CompoundID] OR 8755[CompoundID] O
R 338[CompoundID] OR 123622[CompoundID] OR 23954[CompoundID] OR 6334[CompoundID] OR 2537[CompoundID] OR 24261[CompoundID] OR 23665760[CompoundID] OR 83975[CompoundID] OR 784[CompoundID] OR 24437[Compo
undID] OR 5360315[CompoundID] OR 311[CompoundID] OR 6549[CompoundID] OR 107689[CompoundID] OR 17100[CompoundID] OR 24976875[CompoundID] OR 6654[CompoundID] OR 71245[CompoundID] OR 6442842[CompoundID]
OR 62334[CompoundID] OR 54698175[CompoundID] OR 6328154[CompoundID] OR 24762[CompoundID] OR 440950[CompoundID] OR 7017[CompoundID] OR 5281873[CompoundID] OR 323[CompoundID] OR 5281167[CompoundID] OR 7
175[CompoundID] OR 7292[CompoundID] OR 6335613[CompoundID] OR 7456[CompoundID] OR 7462[CompoundID]

> <resultIndex>
147

> <resultRange>
1-176

> <textQuery>
7628,244,25059,7618,7641,5053,637511,7714,7762,25429,8842,7794,637566,7843,174,7870,86102,7888,7896,1140,8042,8058,8078,8087,8117,8133,115224,8175,8194,445639,4944,8294,93541,8360,8363,656612,125098,3
352,3303913,64805,31200,1712058,31236,31239,31265,31266,31276,6950273,518659,14896,14798,14829,14830,8635,23266,4284,8693,22311,8759,8785,2723810,8857,3893,9936739,516892,5430,9017,15433,107720,955208
1,164825,10275455,16666,9839306,5282227,23676745,32881,91581,39800,33344,15962220,33528,5365075,62829,162381,517202,6433353,2730,5372405,36081,3120,3017,2969,18827,19518,19658,38283,2758,10112,10340,7
12,5794,3347,104150,2912,2450,40326,40585,517055,10913,108242,62097,41679,54680676,62118,753,1030,23673837,54678504,11442,11463,22230,440917,6054,43234,22629,3039,2735067,6144,702,284,176,91688,22947,
47445,1711973,243,10342051,5281875,3776,6224,104926,8755,338,123622,23954,6334,2537,24261,23665760,83975,784,24437,5360315,311,6549,107689,17100,24976875,6654,71245,6442842,62334,54698175,6328154,2476
2,440950,7017,5281873,323,5281167,7175,7292,6335613,7456,7462

$$$$
4,944
  SciTegic10191915303D

 30 30  0  0  0  0            999 V2000
    4.3670    2.0080   -1.4140 C   0  0
    3.1560    1.7640   -0.6170 N   0  0
    2.3400    0.7170   -0.9410 C   0  0
    2.6090   -0.0020   -1.8750 O   0  0
    1.2660    0.5620   -0.1720 O   0  0
    0.6430   -0.6000   -0.1720 C   0  0
    1.3850   -1.7930   -0.1720 C   0  0
    0.7290   -3.0350   -0.1720 C   0  0
   -0.6760   -3.0860   -0.1720 C   0  0
   -1.4200   -1.8950   -0.1720 C   0  0
   -0.7660   -0.6500   -0.1720 C   0  0
   -1.4710    0.4630   -0.1720 O   0  0
   -2.6820    0.4840    0.5680 C   0  0
   -2.4060    0.0510    2.0100 C   0  0
   -3.3090    1.8770    0.4820 C   0  0
    4.8480    2.9220   -1.0660 H   0  0
    5.0120    1.1310   -1.3650 H   0  0
    4.0860    2.1540   -2.4570 H   0  0
    2.9320    2.3550    0.1560 H   0  0
    2.4650   -1.7580   -0.1720 H   0  0
    1.3030   -3.9490   -0.1720 H   0  0
   -1.1820   -4.0390   -0.1720 H   0  0
   -2.5000   -1.9380   -0.1720 H   0  0
   -3.3050   -0.2500    0.0570 H   0  0
   -1.7560    0.7560    2.5270 H   0  0
   -1.9240   -0.9260    2.0310 H   0  0
   -3.3360   -0.0240    2.5740 H   0  0
   -3.4960    2.1740   -0.5510 H   0  0
   -2.6520    2.6230    0.9300 H   0  0
   -4.2600    1.9040    1.0140 H   0  0
  1  2  1  0
  2  3  1  0
  3  4  2  0
  3  5  1  0
  5  6  1  0
  6  7  2  0
  6 11  1  0
  7  8  1  0
  8  9  2  0
  9 10  1  0
 10 11  2  0
 11 12  1  0
 12 13  1  0
 13 14  1  0
 13 15  1  0
  1 16  1  0
  1 17  1  0
  1 18  1  0
  2 19  1  0
  7 20  1  0
  8 21  1  0
  9 22  1  0
 10 23  1  0
 13 24  1  0
 14 25  1  0
 14 26  1  0
 14 27  1  0
 15 28  1  0
 15 29  1  0
 15 30  1  0
M  END
> <Name>
4,944

> <OBJECTID>
9223372655333408779

> <ActiveAidCount>
7

> <AtomChiralCount>
0

> <AtomChiralDefCount>
0

> <AtomChiralUndefCount>
0

> <BondChiralCount>
0

> <BondChiralDefCount>
0

> <BondChiralUndefCount>
0

> <CID>
4944

> <CanonicalSmiles>
CC(C)OC1=CC=CC=C1OC(=O)NC

> <Complexity>
206

> <CovalentUnitCount>
1

> <CreateDate>
2005/03/25 00:00

> <HeavyAtomCount>
15

> <HydrogenBondAcceptorCount>
3

> <HydrogenBondDonorCount>
1

> <IUPACName>
(2-propan-2-yloxyphenyl) N-methylcarbamate

> <InChI>
InChI=1S/C11H15NO3/c1-8(2)14-9-6-4-5-7-10(9)15-11(13)12-3/h4-8H,1-3H3,(H,12,13)

> <InChIKey>
ISRUGXGCCGIOQO-UHFFFAOYSA-N

> <IsomericSmiles>
CC(C)OC1=CC=CC=C1OC(=O)NC

> <IsotopeAtomCount>
0

> <MeSHHeading>
Propoxur

> <MeSHTerm>
Unden
O-Isopropoxyphenylmethylcarbamate
O Isopropoxyphenylmethylcarbamate
Aprocarb
Sendran
Baygon
Propoxur

> <MolecularFormula>
C11H15NO3

> <MolecularWeight>
209.24

> <PharmAction>
Neurotransmitter Agents
Physiological Effects of Drugs
Cholinesterase Inhibitors
Chemical Actions and Uses
Toxic Actions
Pharmacologic Actions
Insecticides
Molecular Mechanisms of Pharmacological Action
Enzyme Inhibitors
Agrochemicals
Pesticides
Specialty Uses of Chemicals
Cholinergic Agents

> <RotatableBondCount>
4

> <Smiles>
CNC(Oc1c(OC(C)C)cccc1)=O

> <SourceCategory>
Chemical Vendors
Legacy Depositors
Research and Development
Curation Efforts
Governmental Organizations
NIH Initiatives
Subscription Services
Journal Publishers

> <Synonym>
propoxur
Baygon
114-26-1
Aprocarb
2-Isopropoxyphenyl methylcarbamate
Propoxure
Sendran
Propoxylor
Blattanex
Blattosep
Mrowkozol
Propotox
Suncide
Bolfo
Boruho
Brygou
Dalf dust
Invisi-Gard
2-Isopropoxyphenyl N-methylcarbamate
Arprocarb
Isocarb
Propyon
Rhoden
Bifex
Boruho 50
IPMC
o-Impc
Tugon fliegenkugel
Unden (Pesticide)
Bayer B 5122
Bayer 39007
Propoksuru
Chemagro 9010
Unden 50PM
PHC 7
PHC (carbamate)
Phenol, 2-(1-methylethoxy)-, methylcarbamate
Propoksuru [Polish]
Bay 9010
Caswell No. 508
ENT 25,671
2-(1-Methylethoxy)phenol methylcarbamate
O-(2-Isopropoxyphenyl) N-methylcarbamate
BAY 5122
o-Isopropoxyphenyl N-methylcarbamate
UNII-BFH029TL73
BAY 39007
Propoxur [BAN]
NSC 379584
Phenol, o-isopropoxy-, methylcarbamate
CCRIS 1392
HSDB 603
OMS-33
CHEBI:34938
o-Isopropoxyphenyl methylcarbamate
2-Isopropoxyphenyl-N-methylcarbamat
EINECS 204-043-8
Carbamic acid, methyl-, o-isopropoxyphenyl ester
EPA Pesticide Chemical Code 047802
BRN 1879891
AI3-25671
BFH029TL73
OMS 33
(2-propan-2-yloxyphenyl) N-methylcarbamate
2-Isopropoxyphenyl-N-methylcarbamat [German]
ISRUGXGCCGIOQO-UHFFFAOYSA-N
Propoxur (BAN)
2-(1-methylethoxy)phenyl methylcarbamate
2-(propan-2-yloxy)phenyl methylcarbamate
2-(1-Methylethoxy)phenyl N-methylcarbamate
DSSTox_CID_1948
2-[(1-methylethyl)oxy]phenyl methylcarbamate
DSSTox_RID_76421
DSSTox_GSID_21948
Propoxur (baygon)
CAS-114-26-1
Propoxur [INN:BAN]
Pillargon
Propogon
Boygon
Baygon G
Baygon&reg;
Bolfo (TN)
Spectrum_001923
SpecPlus_000554
Spectrum2_001232
Spectrum3_000857
Spectrum4_000697
Spectrum5_002032
2-(propan-2-yloxy)phenyl methyl(14c)carbamate
AC1L1JA0
AC1Q1QR6
SCHEMBL27794
BSPBio_002473
KBioGR_001193
KBioSS_002465
SPECTRUM330066
MLS002207242
BIDD:ER0307
DivK1c_006650
SPBio_001104
Isopropoxyphenyl methylcarbamate
AC1Q61S0
CHEMBL446060
DTXSID7021948
CTK8G2609
ISRUGXGCCGIOQO-UHFFFAOYSA-
KBio1_001594
KBio2_002458
KBio2_005026
KBio2_007594
KBio3_001973
HMS3264G19
Pharmakon1600-00330066
HY-B0916
ZINC1590885
N-Methyl-2-isopropoxyphenylcarbamate
Tox21_201968
Tox21_301207
BDBM50064617
CCG-39115
NSC379584
NSC755890
Propoxur 10 microg/mL in Cyclohexane
AKOS015889907
(2-isopropoxyphenyl) N-methylcarbamate
NSC-379584
NSC-755890
KS-00001F97
NCGC00094544-01
NCGC00094544-02
NCGC00094544-03
NCGC00094544-04
NCGC00094544-05
NCGC00094544-06
NCGC00094544-07
NCGC00255104-01
NCGC00259517-01
AJ-27685
AN-22735
AS-50078
CC-33975
CJ-25442
LS-50228
S257
SMR000778062
2-(1-Methylethoxy)phenyl methyl carbamate
SBI-0052551.P002
AX8017616
FT-0603314
Propoxur, PESTANAL(R), analytical standard
C14334
D08442
2-(1-Methylethoxy)phenol 1-(N-Methylcarbamate)
AB00053059_04
114P261
C-10727
SR-01000872751
I01-4383
J-003071
SR-01000872751-1
Phenol, 2-(1-methylethoxy)-, 1-(N-methylcarbamate)
Carbamic acid, methyl-, 2-(1-methylethoxy)phenyl ester
InChI=1/C11H15NO3/c1-8(2)14-9-6-4-5-7-10(9)15-11(13)12-3/h4-8H,1-3H3,(H,12,13)

> <TPSA>
47.6

> <TotalAidCount>
647

> <TotalFormalCharge>
0

> <XLogP>
1.5

> <database>
PubChem Compound

> <matchingCount>
176

> <primaryID>
4944

> <queryTranslation>
7628[CompoundID] OR 244[CompoundID] OR 25059[CompoundID] OR 7618[CompoundID] OR 7641[CompoundID] OR 5053[CompoundID] OR 637511[CompoundID] OR 7714[CompoundID] OR 7762[CompoundID] OR 25429[CompoundID]
OR 8842[CompoundID] OR 7794[CompoundID] OR 637566[CompoundID] OR 7843[CompoundID] OR 174[CompoundID] OR 7870[CompoundID] OR 86102[CompoundID] OR 7888[CompoundID] OR 7896[CompoundID] OR 1140[CompoundID
] OR 8042[CompoundID] OR 8058[CompoundID] OR 8078[CompoundID] OR 8087[CompoundID] OR 8117[CompoundID] OR 8133[CompoundID] OR 115224[CompoundID] OR 8175[CompoundID] OR 8194[CompoundID] OR 445639[Compou
ndID] OR 4944[CompoundID] OR 8294[CompoundID] OR 93541[CompoundID] OR 8360[CompoundID] OR 8363[CompoundID] OR 656612[CompoundID] OR 125098[CompoundID] OR 3352[CompoundID] OR 3303913[CompoundID] OR 648
05[CompoundID] OR 31200[CompoundID] OR 1712058[CompoundID] OR 31236[CompoundID] OR 31239[CompoundID] OR 31265[CompoundID] OR 31266[CompoundID] OR 31276[CompoundID] OR 6950273[CompoundID] OR 518659[Com
poundID] OR 14896[CompoundID] OR 14798[CompoundID] OR 14829[CompoundID] OR 14830[CompoundID] OR 8635[CompoundID] OR 23266[CompoundID] OR 4284[CompoundID] OR 8693[CompoundID] OR 22311[CompoundID] OR 87
59[CompoundID] OR 8785[CompoundID] OR 2723810[CompoundID] OR 8857[CompoundID] OR 3893[CompoundID] OR 9936739[CompoundID] OR 516892[CompoundID] OR 5430[CompoundID] OR 9017[CompoundID] OR 15433[Compound
ID] OR 107720[CompoundID] OR 9552081[CompoundID] OR 164825[CompoundID] OR 10275455[CompoundID] OR 16666[CompoundID] OR 9839306[CompoundID] OR 5282227[CompoundID] OR 23676745[CompoundID] OR 32881[Compo
undID] OR 91581[CompoundID] OR 39800[CompoundID] OR 33344[CompoundID] OR 15962220[CompoundID] OR 33528[CompoundID] OR 5365075[CompoundID] OR 62829[CompoundID] OR 162381[CompoundID] OR 517202[CompoundI
D] OR 6433353[CompoundID] OR 2730[CompoundID] OR 5372405[CompoundID] OR 36081[CompoundID] OR 3120[CompoundID] OR 3017[CompoundID] OR 2969[CompoundID] OR 18827[CompoundID] OR 19518[CompoundID] OR 19658
[CompoundID] OR 38283[CompoundID] OR 2758[CompoundID] OR 10112[CompoundID] OR 10340[CompoundID] OR 712[CompoundID] OR 5794[CompoundID] OR 3347[CompoundID] OR 104150[CompoundID] OR 2912[CompoundID] OR
2450[CompoundID] OR 40326[CompoundID] OR 40585[CompoundID] OR 517055[CompoundID] OR 10913[CompoundID] OR 108242[CompoundID] OR 62097[CompoundID] OR 41679[CompoundID] OR 54680676[CompoundID] OR 62118[C
ompoundID] OR 753[CompoundID] OR 1030[CompoundID] OR 23673837[CompoundID] OR 54678504[CompoundID] OR 11442[CompoundID] OR 11463[CompoundID] OR 22230[CompoundID] OR 440917[CompoundID] OR 6054[CompoundI
D] OR 43234[CompoundID] OR 22629[CompoundID] OR 3039[CompoundID] OR 2735067[CompoundID] OR 6144[CompoundID] OR 702[CompoundID] OR 284[CompoundID] OR 176[CompoundID] OR 91688[CompoundID] OR 22947[Compo
undID] OR 47445[CompoundID] OR 1711973[CompoundID] OR 243[CompoundID] OR 10342051[CompoundID] OR 5281875[CompoundID] OR 3776[CompoundID] OR 6224[CompoundID] OR 104926[CompoundID] OR 8755[CompoundID] O
R 338[CompoundID] OR 123622[CompoundID] OR 23954[CompoundID] OR 6334[CompoundID] OR 2537[CompoundID] OR 24261[CompoundID] OR 23665760[CompoundID] OR 83975[CompoundID] OR 784[CompoundID] OR 24437[Compo
undID] OR 5360315[CompoundID] OR 311[CompoundID] OR 6549[CompoundID] OR 107689[CompoundID] OR 17100[CompoundID] OR 24976875[CompoundID] OR 6654[CompoundID] OR 71245[CompoundID] OR 6442842[CompoundID]
OR 62334[CompoundID] OR 54698175[CompoundID] OR 6328154[CompoundID] OR 24762[CompoundID] OR 440950[CompoundID] OR 7017[CompoundID] OR 5281873[CompoundID] OR 323[CompoundID] OR 5281167[CompoundID] OR 7
175[CompoundID] OR 7292[CompoundID] OR 6335613[CompoundID] OR 7456[CompoundID] OR 7462[CompoundID]

> <resultIndex>
148

> <resultRange>
1-176

> <textQuery>
7628,244,25059,7618,7641,5053,637511,7714,7762,25429,8842,7794,637566,7843,174,7870,86102,7888,7896,1140,8042,8058,8078,8087,8117,8133,115224,8175,8194,445639,4944,8294,93541,8360,8363,656612,125098,3
352,3303913,64805,31200,1712058,31236,31239,31265,31266,31276,6950273,518659,14896,14798,14829,14830,8635,23266,4284,8693,22311,8759,8785,2723810,8857,3893,9936739,516892,5430,9017,15433,107720,955208
1,164825,10275455,16666,9839306,5282227,23676745,32881,91581,39800,33344,15962220,33528,5365075,62829,162381,517202,6433353,2730,5372405,36081,3120,3017,2969,18827,19518,19658,38283,2758,10112,10340,7
12,5794,3347,104150,2912,2450,40326,40585,517055,10913,108242,62097,41679,54680676,62118,753,1030,23673837,54678504,11442,11463,22230,440917,6054,43234,22629,3039,2735067,6144,702,284,176,91688,22947,
47445,1711973,243,10342051,5281875,3776,6224,104926,8755,338,123622,23954,6334,2537,24261,23665760,83975,784,24437,5360315,311,6549,107689,17100,24976875,6654,71245,6442842,62334,54698175,6328154,2476
2,440950,7017,5281873,323,5281167,7175,7292,6335613,7456,7462

$$$$
4,284
  SciTegic10191915303D

 31 31  0  0  0  0            999 V2000
   -2.6910   -2.7250   -0.4320 C   0  0
   -1.3570   -2.8520    0.3040 C   0  0
   -0.6310   -1.5720    0.3020 N   0  0
   -0.6480   -0.7400    1.5150 C   0  0
    0.6660   -0.8690    2.2850 C   0  0
    0.0410   -1.1860   -0.8210 C   0  0
    0.7380    0.1350   -0.8210 C   0  0
    2.1450    0.1870   -0.8210 C   0  0
    2.8030    1.4300   -0.8210 C   0  0
    2.0570    2.6210   -0.8210 C   0  0
    0.6500    2.5700   -0.8210 C   0  0
   -0.1390    3.8300   -0.8210 C   0  0
   -0.0080    1.3280   -0.8210 C   0  0
    0.0660   -1.9030   -1.7950 O   0  0
   -3.3380   -1.9750    0.0230 H   0  0
   -3.2270   -3.6740   -0.4240 H   0  0
   -2.5310   -2.4420   -1.4730 H   0  0
   -1.5160   -3.1720    1.3360 H   0  0
   -0.7340   -3.6170   -0.1550 H   0  0
   -0.8320    0.2970    1.2360 H   0  0
   -1.4920   -1.0350    2.1400 H   0  0
    0.8420   -1.9050    2.5760 H   0  0
    1.5020   -0.5240    1.6790 H   0  0
    0.6390   -0.2680    3.1950 H   0  0
    2.7270   -0.7230   -0.8210 H   0  0
    3.8810    1.4690   -0.8210 H   0  0
    2.5670    3.5720   -0.8210 H   0  0
    0.4670    4.7380   -0.8210 H   0  0
   -0.7790    3.8570    0.0580 H   0  0
   -0.7790    3.8570   -1.7020 H   0  0
   -1.0880    1.2910   -0.8210 H   0  0
  1  2  1  0
  2  3  1  0
  3  4  1  0
  3  6  1  0
  4  5  1  0
  6  7  1  0
  6 14  2  0
  7  8  2  0
  7 13  1  0
  8  9  1  0
  9 10  2  0
 10 11  1  0
 11 12  1  0
 11 13  2  0
  1 15  1  0
  1 16  1  0
  1 17  1  0
  2 18  1  0
  2 19  1  0
  4 20  1  0
  4 21  1  0
  5 22  1  0
  5 23  1  0
  5 24  1  0
  8 25  1  0
  9 26  1  0
 10 27  1  0
 12 28  1  0
 12 29  1  0
 12 30  1  0
 13 31  1  0
M  END
> <Name>
4,284

> <OBJECTID>
9223372659628376075

> <ActiveAidCount>
9

> <AtomChiralCount>
0

> <AtomChiralDefCount>
0

> <AtomChiralUndefCount>
0

> <BondChiralCount>
0

> <BondChiralDefCount>
0

> <BondChiralUndefCount>
0

> <CID>
4284

> <CanonicalSmiles>
CCN(CC)C(=O)C1=CC=CC(=C1)C

> <Complexity>
187

> <CovalentUnitCount>
1

> <CreateDate>
2005/03/25 00:00

> <HeavyAtomCount>
14

> <HydrogenBondAcceptorCount>
1

> <HydrogenBondDonorCount>
0

> <IUPACName>
N,N-diethyl-3-methylbenzamide

> <InChI>
InChI=1S/C12H17NO/c1-4-13(5-2)12(14)11-8-6-7-10(3)9-11/h6-9H,4-5H2,1-3H3

> <InChIKey>
MMOXZBCLCQITDF-UHFFFAOYSA-N

> <IsomericSmiles>
CCN(CC)C(=O)C1=CC=CC(=C1)C

> <IsotopeAtomCount>
0

> <MeSHHeading>
DEET

> <MeSHTerm>
DETA
R 209
N,N Diethyltoluamide
DEET
N,N Diethyl 3 methylbenzamide
N,N-Diethyl-2,5-dimethylbenzamide
DET
DEET, 2,5-di-Me-Analog
N,N-Diethyltoluamide
N,N-Diethyl-3-methylbenzamide
N,N-Diethyl-m-toluamide
N,N Diethyl m toluamide
R209
R-209

> <MolecularFormula>
C12H17NO

> <MolecularWeight>
191.27

> <PharmAction>
Insect Repellents
Chemical Actions and Uses
Toxic Actions
Specialty Uses of Chemicals
Pesticides
Protective Agents
Physiological Effects of Drugs
Pharmacologic Actions
Agrochemicals

> <RotatableBondCount>
3

> <Smiles>
CCN(C(=O)c1cc(C)ccc1)CC

> <SourceCategory>
Chemical Vendors
Legacy Depositors
Research and Development
Curation Efforts
Governmental Organizations
NIH Initiatives
Subscription Services
Journal Publishers

> <Synonym>
DEET
N,N-Diethyl-3-methylbenzamide
134-62-3
N,N-Diethyl-m-toluamide
Diethyltoluamide
Dieltamid
Metadelphene
Delphene
Flypel
Detamide
Autan
m-Delphene
3-Methyl-N,N-diethylbenzamide
DETA
Repudin-Special
Diethyl toluamide
Benzamide, N,N-diethyl-3-methyl-
Repel
M-Det
Naugatuck DET
m-DETA
m-Toluic acid diethylamide
Repper-DET
Diethyl-m-toluamide
Muscol
N,N-Diethyl-meta-toluamide
Repper DET
Amincene C-EM
Mgk diethyltoluamide
Dietiltoluamida
Amincene C 140
m-Toluamide, N,N-diethyl-
Diethyltoluamidum
DETA-20
DET (insect repellant)
ENT 22542
Bepper DET
Caswell No. 346
ENT 20,218
N,N-diethyl-3-methyl-benzamide
UNII-FB0C1XZV4Y
NSC 33840
Diethyltoluamidum [INN-Latin]
Dietiltoluamida [INN-Spanish]
CCRIS 6018
HSDB 1582
AI 3-22542
EINECS 205-149-7
MFCD00009046
FB0C1XZV4Y
Off
EPA Pesticide Chemical Code 080301
BRN 2046711
CHEBI:7071
MMOXZBCLCQITDF-UHFFFAOYSA-N
NCGC00091219-02
Diethyltoluamide (DEET)
N,N-Diethyl-meta-toluamide and other isomers
DSSTox_CID_1995
A.I. 3-22542
DSSTox_RID_76448
DSSTox_GSID_21995
N,N-Diethyl-m-toluamide, 98%
CAS-134-62-3
SMR000777931
N,N-Diethyl-m-toluamide, analytical standard
Diethyltoluamide [USP:INN:BAN]
Diethyltoluamide [USAN:INN:BAN]
Off!
PubChem15448
Spectrum_001989
3n7h
DIELTAMID(R)
(N,N-diethyltoluamide)
DELPHENE(R)
DETAMIDE(R)
m-Toluamide,N-diethyl-
n,n-diethyl m-toluamide
n-diethyl-meta-toluamide
FEYPEL(R)
AC1L1HTH
META-DELPHENE(R)
Spectrum2_001072
Spectrum4_000439
Spectrum5_002076
DEET, analytical standard
OFF(R)
ACMC-1BV02
Diethyltoluamide (USP/INN)
SCHEMBL29976
KBioGR_000798
KBioSS_002555
KSC174Q2D
MLS001333179
MLS001333180
MLS002207091
MLS002415750
DivK1c_000157
SPECTRUM1601020
SPBio_001084
Benzamide,N-diethyl-3-methyl-
N,N-DITHYL-M-TOLUAMIDE
ZINC1291
CHEMBL1453317
DTXSID2021995
N,N-DIETHYL-3-TOLUAMIDE
CTK0H4821
DEET 10 microg/mL in Methanol
HMS500H19
KBio1_000157
KBio2_002546
KBio2_005114
KBio2_007682
NINDS_000157
WLN: 2N2 & VR C1
DEET 100 microg/mL in Methanol
HMS2094E11
HMS2231H11
HMS3372F07
Pharmakon1600-01601020
HY-B0978
KS-00000IS6
NSC33840
Tox21_111103
Tox21_201980
Tox21_300917
ANW-19692
LS-780
NSC-33840
NSC759564
s4521
AKOS003852835
N,N-Diethyl-3-methylbenzamide, 97%
Tox21_111103_1
AS01242
CCG-213639
CS-4468
N,N-diethyl(3-methylphenyl)carboxamide
NSC-759564
RP25106
RTR-004688
VZ36454
IDI1_000157
3-METHYLBENZOIC ACID DIETHYLAMIDE
NCGC00091219-01
NCGC00091219-03
NCGC00091219-04
NCGC00091219-05
NCGC00091219-06
NCGC00091219-08
NCGC00254820-01
NCGC00259529-01
AC-11315
AJ-07999
AK-41340
AN-23088
AN-34940
CJ-00041
DEET, PESTANAL(R), analytical standard
DS-13831
SC-21727
ZB000304
SBI-0051886.P002
DB-042245
N,N-DIETHYL-M-METHYL PHENYLFORMAMIDE
TL8000811
TR-004688
D0097
FT-0629479
ST24031255
ST50406384
C10935
D02379
AB00052406_06
SR-05000001887
I14-6109
Q-200984
SR-05000001887-1
BRD-K94080537-001-05-5
Z31723661
Diethyltoluamide, United States Pharmacopeia (USP) Reference Standard
DE3

> <TPSA>
20.3

> <TotalAidCount>
1036

> <TotalFormalCharge>
0

> <XLogP>
2

> <database>
PubChem Compound

> <matchingCount>
176

> <primaryID>
4284

> <queryTranslation>
7628[CompoundID] OR 244[CompoundID] OR 25059[CompoundID] OR 7618[CompoundID] OR 7641[CompoundID] OR 5053[CompoundID] OR 637511[CompoundID] OR 7714[CompoundID] OR 7762[CompoundID] OR 25429[CompoundID]
OR 8842[CompoundID] OR 7794[CompoundID] OR 637566[CompoundID] OR 7843[CompoundID] OR 174[CompoundID] OR 7870[CompoundID] OR 86102[CompoundID] OR 7888[CompoundID] OR 7896[CompoundID] OR 1140[CompoundID
] OR 8042[CompoundID] OR 8058[CompoundID] OR 8078[CompoundID] OR 8087[CompoundID] OR 8117[CompoundID] OR 8133[CompoundID] OR 115224[CompoundID] OR 8175[CompoundID] OR 8194[CompoundID] OR 445639[Compou
ndID] OR 4944[CompoundID] OR 8294[CompoundID] OR 93541[CompoundID] OR 8360[CompoundID] OR 8363[CompoundID] OR 656612[CompoundID] OR 125098[CompoundID] OR 3352[CompoundID] OR 3303913[CompoundID] OR 648
05[CompoundID] OR 31200[CompoundID] OR 1712058[CompoundID] OR 31236[CompoundID] OR 31239[CompoundID] OR 31265[CompoundID] OR 31266[CompoundID] OR 31276[CompoundID] OR 6950273[CompoundID] OR 518659[Com
poundID] OR 14896[CompoundID] OR 14798[CompoundID] OR 14829[CompoundID] OR 14830[CompoundID] OR 8635[CompoundID] OR 23266[CompoundID] OR 4284[CompoundID] OR 8693[CompoundID] OR 22311[CompoundID] OR 87
59[CompoundID] OR 8785[CompoundID] OR 2723810[CompoundID] OR 8857[CompoundID] OR 3893[CompoundID] OR 9936739[CompoundID] OR 516892[CompoundID] OR 5430[CompoundID] OR 9017[CompoundID] OR 15433[Compound
ID] OR 107720[CompoundID] OR 9552081[CompoundID] OR 164825[CompoundID] OR 10275455[CompoundID] OR 16666[CompoundID] OR 9839306[CompoundID] OR 5282227[CompoundID] OR 23676745[CompoundID] OR 32881[Compo
undID] OR 91581[CompoundID] OR 39800[CompoundID] OR 33344[CompoundID] OR 15962220[CompoundID] OR 33528[CompoundID] OR 5365075[CompoundID] OR 62829[CompoundID] OR 162381[CompoundID] OR 517202[CompoundI
D] OR 6433353[CompoundID] OR 2730[CompoundID] OR 5372405[CompoundID] OR 36081[CompoundID] OR 3120[CompoundID] OR 3017[CompoundID] OR 2969[CompoundID] OR 18827[CompoundID] OR 19518[CompoundID] OR 19658
[CompoundID] OR 38283[CompoundID] OR 2758[CompoundID] OR 10112[CompoundID] OR 10340[CompoundID] OR 712[CompoundID] OR 5794[CompoundID] OR 3347[CompoundID] OR 104150[CompoundID] OR 2912[CompoundID] OR
2450[CompoundID] OR 40326[CompoundID] OR 40585[CompoundID] OR 517055[CompoundID] OR 10913[CompoundID] OR 108242[CompoundID] OR 62097[CompoundID] OR 41679[CompoundID] OR 54680676[CompoundID] OR 62118[C
ompoundID] OR 753[CompoundID] OR 1030[CompoundID] OR 23673837[CompoundID] OR 54678504[CompoundID] OR 11442[CompoundID] OR 11463[CompoundID] OR 22230[CompoundID] OR 440917[CompoundID] OR 6054[CompoundI
D] OR 43234[CompoundID] OR 22629[CompoundID] OR 3039[CompoundID] OR 2735067[CompoundID] OR 6144[CompoundID] OR 702[CompoundID] OR 284[CompoundID] OR 176[CompoundID] OR 91688[CompoundID] OR 22947[Compo
undID] OR 47445[CompoundID] OR 1711973[CompoundID] OR 243[CompoundID] OR 10342051[CompoundID] OR 5281875[CompoundID] OR 3776[CompoundID] OR 6224[CompoundID] OR 104926[CompoundID] OR 8755[CompoundID] O
R 338[CompoundID] OR 123622[CompoundID] OR 23954[CompoundID] OR 6334[CompoundID] OR 2537[CompoundID] OR 24261[CompoundID] OR 23665760[CompoundID] OR 83975[CompoundID] OR 784[CompoundID] OR 24437[Compo
undID] OR 5360315[CompoundID] OR 311[CompoundID] OR 6549[CompoundID] OR 107689[CompoundID] OR 17100[CompoundID] OR 24976875[CompoundID] OR 6654[CompoundID] OR 71245[CompoundID] OR 6442842[CompoundID]
OR 62334[CompoundID] OR 54698175[CompoundID] OR 6328154[CompoundID] OR 24762[CompoundID] OR 440950[CompoundID] OR 7017[CompoundID] OR 5281873[CompoundID] OR 323[CompoundID] OR 5281167[CompoundID] OR 7
175[CompoundID] OR 7292[CompoundID] OR 6335613[CompoundID] OR 7456[CompoundID] OR 7462[CompoundID]

> <resultIndex>
149

> <resultRange>
1-176

> <textQuery>
7628,244,25059,7618,7641,5053,637511,7714,7762,25429,8842,7794,637566,7843,174,7870,86102,7888,7896,1140,8042,8058,8078,8087,8117,8133,115224,8175,8194,445639,4944,8294,93541,8360,8363,656612,125098,3
352,3303913,64805,31200,1712058,31236,31239,31265,31266,31276,6950273,518659,14896,14798,14829,14830,8635,23266,4284,8693,22311,8759,8785,2723810,8857,3893,9936739,516892,5430,9017,15433,107720,955208
1,164825,10275455,16666,9839306,5282227,23676745,32881,91581,39800,33344,15962220,33528,5365075,62829,162381,517202,6433353,2730,5372405,36081,3120,3017,2969,18827,19518,19658,38283,2758,10112,10340,7
12,5794,3347,104150,2912,2450,40326,40585,517055,10913,108242,62097,41679,54680676,62118,753,1030,23673837,54678504,11442,11463,22230,440917,6054,43234,22629,3039,2735067,6144,702,284,176,91688,22947,
47445,1711973,243,10342051,5281875,3776,6224,104926,8755,338,123622,23954,6334,2537,24261,23665760,83975,784,24437,5360315,311,6549,107689,17100,24976875,6654,71245,6442842,62334,54698175,6328154,2476
2,440950,7017,5281873,323,5281167,7175,7292,6335613,7456,7462

$$$$
3,893
  SciTegic10191915303D

 38 37  0  0  0  0            999 V2000
   -6.3050    2.8470   -1.4240 C   0  0
   -4.7800    2.9520   -1.4150 C   0  0
   -4.1050    1.7050   -0.8430 C   0  0
   -2.5800    1.8040   -0.8500 C   0  0
   -1.9050    0.5560   -0.2790 C   0  0
   -0.3790    0.6550   -0.2860 C   0  0
    0.2950   -0.5930    0.2850 C   0  0
    1.8210   -0.4940    0.2780 C   0  0
    2.4960   -1.7420    0.8500 C   0  0
    4.0220   -1.6450    0.8380 C   0  0
    4.6960   -2.8810    1.4350 C   0  0
    6.1970   -2.7730    1.4350 C   0  0
    6.7430   -1.6940    1.4350 O   0  0
    6.8480   -3.9320    1.4350 O   0  0
   -6.7540    3.7820   -1.7580 H   0  0
   -6.6320    2.0410   -2.0810 H   0  0
   -6.6830    2.6350   -0.4230 H   0  0
   -4.4590    3.8450   -0.8780 H   0  0
   -4.4030    3.1700   -2.4140 H   0  0
   -4.4360    0.8110   -1.3730 H   0  0
   -4.4730    1.4940    0.1610 H   0  0
   -2.2490    2.6970   -0.3210 H   0  0
   -2.2120    2.0150   -1.8550 H   0  0
   -2.2360   -0.3380   -0.8090 H   0  0
   -2.2730    0.3450    0.7250 H   0  0
   -0.0480    1.5480    0.2430 H   0  0
   -0.0110    0.8660   -1.2900 H   0  0
   -0.0350   -1.4860   -0.2440 H   0  0
   -0.0720   -0.8040    1.2890 H   0  0
    2.1520    0.3990    0.8080 H   0  0
    2.1890   -0.2830   -0.7260 H   0  0
    2.1620   -2.6360    0.3230 H   0  0
    2.1300   -1.9510    1.8550 H   0  0
    4.3540   -0.7410    1.3480 H   0  0
    4.3880   -1.4550   -0.1710 H   0  0
    4.3850   -3.7220    0.8150 H   0  0
    4.3380   -3.0640    2.4480 H   0  0
    7.8140   -3.9320    1.4350 H   0  0
  1  2  1  0
  2  3  1  0
  3  4  1  0
  4  5  1  0
  5  6  1  0
  6  7  1  0
  7  8  1  0
  8  9  1  0
  9 10  1  0
 10 11  1  0
 11 12  1  0
 12 13  2  0
 12 14  1  0
  1 15  1  0
  1 16  1  0
  1 17  1  0
  2 18  1  0
  2 19  1  0
  3 20  1  0
  3 21  1  0
  4 22  1  0
  4 23  1  0
  5 24  1  0
  5 25  1  0
  6 26  1  0
  6 27  1  0
  7 28  1  0
  7 29  1  0
  8 30  1  0
  8 31  1  0
  9 32  1  0
  9 33  1  0
 10 34  1  0
 10 35  1  0
 11 36  1  0
 11 37  1  0
 14 38  1  0
M  END
> <Name>
3,893

> <OBJECTID>
9223372663923343371

> <ActiveAidCount>
16

> <AtomChiralCount>
0

> <AtomChiralDefCount>
0

> <AtomChiralUndefCount>
0

> <BondChiralCount>
0

> <BondChiralDefCount>
0

> <BondChiralUndefCount>
0

> <CID>
3893

> <CanonicalSmiles>
CCCCCCCCCCCC(=O)O

> <Complexity>
132

> <CovalentUnitCount>
1

> <CreateDate>
2004/09/16 00:00

> <HeavyAtomCount>
14

> <HydrogenBondAcceptorCount>
2

> <HydrogenBondDonorCount>
1

> <IUPACName>
dodecanoic acid

> <InChI>
InChI=1S/C12H24O2/c1-2-3-4-5-6-7-8-9-10-11-12(13)14/h2-11H2,1H3,(H,13,14)

> <InChIKey>
POULHZVOKOAJMA-UHFFFAOYSA-N

> <IsomericSmiles>
CCCCCCCCCCCC(=O)O

> <IsotopeAtomCount>
0

> <MeSHHeading>
lauric acid

> <MeSHTerm>
lauric acid, magnesium salt
potassium laurate
sodium dodecanoate
lauric acid
dodecanoic acid
lauric acid, ammonium salt
lauric acid, barium and cadmium salt (4:1:1)
lauric acid, potassium salt
sodium laurate
lauric acid, nickel(2+) salt
lauric acid, calcium salt
lauric acid, lithium salt
lauric acid, sodium salt

> <MolecularFormula>
C12H24O2

> <MolecularWeight>
200.32

> <RotatableBondCount>
10

> <Smiles>
CCCCCCCCCCCC(O)=O

> <SourceCategory>
Chemical Vendors
Legacy Depositors
Research and Development
Curation Efforts
Governmental Organizations
NIH Initiatives
Subscription Services
Journal Publishers

> <Synonym>
lauric acid
DODECANOIC ACID
143-07-7
n-Dodecanoic acid
Dodecylic acid
Vulvic acid
Laurostearic acid
Dodecoic acid
Duodecylic acid
1-Undecanecarboxylic acid
Aliphat No. 4
Neo-fat 12
C12 fatty acid
Ninol AA62 Extra
Wecoline 1295
Neo-fat 12-43
Hydrofol acid 1255
Hydrofol acid 1295
Duodecyclic acid
Hystrene 9512
Dodecylcarboxylate
Lauric acid (natural)
Univol U-314
Lauric acid, pure
Coconut oil fatty acids
ABL
Undecane-1-carboxylic acid
Laurinsaeure
NSC-5026
MFCD00002736
CCRIS 669
C-1297
UNII-1160N9NU9U
FEMA No. 2614
n-Dodecanoate
Philacid 1200
Dodecanoic Acid Anion
CHEBI:30805
Prifrac 2920
HSDB 6814
Lunac L 70
Emery 651
C12:0
EINECS 205-582-1
BRN 1099477
AI3-00112
DAO
CH3-[CH2]10-COOH
NSC5026
POULHZVOKOAJMA-UHFFFAOYSA-N
1160N9NU9U
dodecylate
laurostearate
vulvate
DODECANOIC ACID (LAURIC ACID)
LAP
Lauric acid, 99%
DSSTox_CID_1590
1-undecanecarboxylate
DSSTox_RID_76223
DSSTox_GSID_21590
CAS-143-07-7
LAU
SMR001253907
lauricacid
laurinsaure
Dodecanoic acid(Lauric acid)
dodecanic acid
lauric-acid
Acide Laurique
dilauric acid;
3uil
Lauric acid (NF)
Lauric Acid 652
Kortacid 1299
OA(1)ethEa
Nissan NAA 122
Emery 650
Lunac L 98
Prifac 2920
Univol U 314
Dodecanoic acid, 98%
Dodecanoic acid, 99%
ACMC-1BTHL
Dodecanoic (Lauric) acid
bmse000509
EC 205-582-1
AC1L1GY2
AC1Q5W8C
SCHEMBL5895
NCIOpen2_009480
4-02-00-01082 (Beilstein Handbook Reference)
KSC176I2N
MLS002177807
MLS002415737
WLN: QV11
Dodecanoic acid (lauric acid)
Dodecanoic acid, >=99.5%
Edenor C 1298-100
CHEMBL108766
GTPL5534
DTXSID5021590
CTK0H6426
KS-00000XDD
HMS2268C14
HMS3649N06
HY-Y0366
ZINC1529498
Dodecanoic acid, analytical standard
Lauric acid, >=98%, FCC, FG
Tox21_202149
Tox21_303010
ANW-20737
BDBM50180948
LMFA01010012
LS-845
s4726
SBB060023
STL281860
AKOS000277433
DB03017
Duodecylic acidC12:0 (Lipid numbers)
EBD2203547
LAURIC ACID, 99.5% (GLC)
MCULE-2795129925
OR55016
RTR-035707
TRA0004834
NCGC00090919-01
NCGC00090919-02
NCGC00090919-03
NCGC00256486-01
NCGC00259698-01
AC-16451
AN-23253
Dodecanoic acid, >=99% (GC/titration)
ST023796
Dodecanoic acid, purum, >=96.0% (GC)
Lauric acid, natural, >=98%, FCC, FG
TR-035707
CS-0015078
FT-0625572
L0011
A16350
C02679
D10714
SR-01000838338
I04-1205
J-007739
SR-01000838338-3
F0001-0507
Z966690584
76C2A2EB-E8BA-40A6-8032-40A98625ED7B
Lauric acid, European Pharmacopoeia (EP) Reference Standard
UNII-13FB83DEYU component POULHZVOKOAJMA-UHFFFAOYSA-N
UNII-79P21R4317 component POULHZVOKOAJMA-UHFFFAOYSA-N
Lauric acid, United States Pharmacopeia (USP) Reference Standard
Lauric Acid, Pharmaceutical Secondary Standard; Certified Reference Material
InChI=1/C12H24O2/c1-2-3-4-5-6-7-8-9-10-11-12(13)14/h2-11H2,1H3,(H,13,14

> <TPSA>
37.3

> <TotalAidCount>
851

> <TotalFormalCharge>
0

> <XLogP>
4.2

> <database>
PubChem Compound

> <matchingCount>
176

> <primaryID>
3893

> <queryTranslation>
7628[CompoundID] OR 244[CompoundID] OR 25059[CompoundID] OR 7618[CompoundID] OR 7641[CompoundID] OR 5053[CompoundID] OR 637511[CompoundID] OR 7714[CompoundID] OR 7762[CompoundID] OR 25429[CompoundID]
OR 8842[CompoundID] OR 7794[CompoundID] OR 637566[CompoundID] OR 7843[CompoundID] OR 174[CompoundID] OR 7870[CompoundID] OR 86102[CompoundID] OR 7888[CompoundID] OR 7896[CompoundID] OR 1140[CompoundID
] OR 8042[CompoundID] OR 8058[CompoundID] OR 8078[CompoundID] OR 8087[CompoundID] OR 8117[CompoundID] OR 8133[CompoundID] OR 115224[CompoundID] OR 8175[CompoundID] OR 8194[CompoundID] OR 445639[Compou
ndID] OR 4944[CompoundID] OR 8294[CompoundID] OR 93541[CompoundID] OR 8360[CompoundID] OR 8363[CompoundID] OR 656612[CompoundID] OR 125098[CompoundID] OR 3352[CompoundID] OR 3303913[CompoundID] OR 648
05[CompoundID] OR 31200[CompoundID] OR 1712058[CompoundID] OR 31236[CompoundID] OR 31239[CompoundID] OR 31265[CompoundID] OR 31266[CompoundID] OR 31276[CompoundID] OR 6950273[CompoundID] OR 518659[Com
poundID] OR 14896[CompoundID] OR 14798[CompoundID] OR 14829[CompoundID] OR 14830[CompoundID] OR 8635[CompoundID] OR 23266[CompoundID] OR 4284[CompoundID] OR 8693[CompoundID] OR 22311[CompoundID] OR 87
59[CompoundID] OR 8785[CompoundID] OR 2723810[CompoundID] OR 8857[CompoundID] OR 3893[CompoundID] OR 9936739[CompoundID] OR 516892[CompoundID] OR 5430[CompoundID] OR 9017[CompoundID] OR 15433[Compound
ID] OR 107720[CompoundID] OR 9552081[CompoundID] OR 164825[CompoundID] OR 10275455[CompoundID] OR 16666[CompoundID] OR 9839306[CompoundID] OR 5282227[CompoundID] OR 23676745[CompoundID] OR 32881[Compo
undID] OR 91581[CompoundID] OR 39800[CompoundID] OR 33344[CompoundID] OR 15962220[CompoundID] OR 33528[CompoundID] OR 5365075[CompoundID] OR 62829[CompoundID] OR 162381[CompoundID] OR 517202[CompoundI
D] OR 6433353[CompoundID] OR 2730[CompoundID] OR 5372405[CompoundID] OR 36081[CompoundID] OR 3120[CompoundID] OR 3017[CompoundID] OR 2969[CompoundID] OR 18827[CompoundID] OR 19518[CompoundID] OR 19658
[CompoundID] OR 38283[CompoundID] OR 2758[CompoundID] OR 10112[CompoundID] OR 10340[CompoundID] OR 712[CompoundID] OR 5794[CompoundID] OR 3347[CompoundID] OR 104150[CompoundID] OR 2912[CompoundID] OR
2450[CompoundID] OR 40326[CompoundID] OR 40585[CompoundID] OR 517055[CompoundID] OR 10913[CompoundID] OR 108242[CompoundID] OR 62097[CompoundID] OR 41679[CompoundID] OR 54680676[CompoundID] OR 62118[C
ompoundID] OR 753[CompoundID] OR 1030[CompoundID] OR 23673837[CompoundID] OR 54678504[CompoundID] OR 11442[CompoundID] OR 11463[CompoundID] OR 22230[CompoundID] OR 440917[CompoundID] OR 6054[CompoundI
D] OR 43234[CompoundID] OR 22629[CompoundID] OR 3039[CompoundID] OR 2735067[CompoundID] OR 6144[CompoundID] OR 702[CompoundID] OR 284[CompoundID] OR 176[CompoundID] OR 91688[CompoundID] OR 22947[Compo
undID] OR 47445[CompoundID] OR 1711973[CompoundID] OR 243[CompoundID] OR 10342051[CompoundID] OR 5281875[CompoundID] OR 3776[CompoundID] OR 6224[CompoundID] OR 104926[CompoundID] OR 8755[CompoundID] O
R 338[CompoundID] OR 123622[CompoundID] OR 23954[CompoundID] OR 6334[CompoundID] OR 2537[CompoundID] OR 24261[CompoundID] OR 23665760[CompoundID] OR 83975[CompoundID] OR 784[CompoundID] OR 24437[Compo
undID] OR 5360315[CompoundID] OR 311[CompoundID] OR 6549[CompoundID] OR 107689[CompoundID] OR 17100[CompoundID] OR 24976875[CompoundID] OR 6654[CompoundID] OR 71245[CompoundID] OR 6442842[CompoundID]
OR 62334[CompoundID] OR 54698175[CompoundID] OR 6328154[CompoundID] OR 24762[CompoundID] OR 440950[CompoundID] OR 7017[CompoundID] OR 5281873[CompoundID] OR 323[CompoundID] OR 5281167[CompoundID] OR 7
175[CompoundID] OR 7292[CompoundID] OR 6335613[CompoundID] OR 7456[CompoundID] OR 7462[CompoundID]

> <resultIndex>
150

> <resultRange>
1-176

> <textQuery>
7628,244,25059,7618,7641,5053,637511,7714,7762,25429,8842,7794,637566,7843,174,7870,86102,7888,7896,1140,8042,8058,8078,8087,8117,8133,115224,8175,8194,445639,4944,8294,93541,8360,8363,656612,125098,3
352,3303913,64805,31200,1712058,31236,31239,31265,31266,31276,6950273,518659,14896,14798,14829,14830,8635,23266,4284,8693,22311,8759,8785,2723810,8857,3893,9936739,516892,5430,9017,15433,107720,955208
1,164825,10275455,16666,9839306,5282227,23676745,32881,91581,39800,33344,15962220,33528,5365075,62829,162381,517202,6433353,2730,5372405,36081,3120,3017,2969,18827,19518,19658,38283,2758,10112,10340,7
12,5794,3347,104150,2912,2450,40326,40585,517055,10913,108242,62097,41679,54680676,62118,753,1030,23673837,54678504,11442,11463,22230,440917,6054,43234,22629,3039,2735067,6144,702,284,176,91688,22947,
47445,1711973,243,10342051,5281875,3776,6224,104926,8755,338,123622,23954,6334,2537,24261,23665760,83975,784,24437,5360315,311,6549,107689,17100,24976875,6654,71245,6442842,62334,54698175,6328154,2476
2,440950,7017,5281873,323,5281167,7175,7292,6335613,7456,7462

$$$$
3,776
  SciTegic10191915303D

 12 11  0  0  0  0            999 V2000
    0.0860   -1.6040    0.1450 O   0  0
   -0.3540   -0.2660    0.0800 C   0  0
    0.1880    0.4750    1.3030 C   0  0
    0.1370    0.3360   -1.2380 C   0  0
   -0.3980   -2.0980   -0.5330 H   0  0
   -1.4410   -0.3070    0.1040 H   0  0
   -0.1450    0.0180    2.2370 H   0  0
   -0.1450    1.5140    1.3030 H   0  0
    1.2770    0.4750    1.3030 H   0  0
   -0.2460   -0.2320   -2.0860 H   0  0
   -0.1840    1.3730   -1.3300 H   0  0
    1.2250    0.3160   -1.2890 H   0  0
  1  2  1  0
  2  3  1  0
  2  4  1  0
  1  5  1  0
  2  6  1  0
  3  7  1  0
  3  8  1  0
  3  9  1  0
  4 10  1  0
  4 11  1  0
  4 12  1  0
M  END
> <Name>
3,776

> <OBJECTID>
9223372668218310667

> <ActiveAidCount>
6

> <AtomChiralCount>
0

> <AtomChiralDefCount>
0

> <AtomChiralUndefCount>
0

> <BondChiralCount>
0

> <BondChiralDefCount>
0

> <BondChiralUndefCount>
0

> <CID>
3776

> <CanonicalSmiles>
CC(C)O

> <Complexity>
10.8

> <CovalentUnitCount>
1

> <CreateDate>
2004/09/16 00:00

> <HeavyAtomCount>
4

> <HydrogenBondAcceptorCount>
1

> <HydrogenBondDonorCount>
1

> <IUPACName>
propan-2-ol

> <InChI>
InChI=1S/C3H8O/c1-3(2)4/h3-4H,1-2H3

> <InChIKey>
KFZMGEQAYNKOFK-UHFFFAOYSA-N

> <IsomericSmiles>
CC(C)O

> <IsotopeAtomCount>
0

> <MeSHHeading>
2-Propanol

> <MeSHTerm>
2-Propanol
Rubbing Alcohol
Alcohol, Rubbing
Isopropyl Alcohol
Isopropanol
Alcohol, Isopropyl
2 Propanol

> <MolecularFormula>
C3H8O

> <MolecularWeight>
60.1

> <PharmAction>
Solvents
Chemical Actions and Uses
Specialty Uses of Chemicals

> <RotatableBondCount>
0

> <Smiles>
OC(C)C

> <SourceCategory>
Research and Development
Chemical Vendors
Legacy Depositors
Curation Efforts
Governmental Organizations
NIH Initiatives
Subscription Services
Journal Publishers

> <Synonym>
isopropanol
2-Propanol
Isopropyl alcohol
Propan-2-ol
67-63-0
2-Hydroxypropane
sec-Propyl alcohol
Alkolave
Avantine
Hartosol
Dimethylcarbinol
Petrohol
Takineocol
Alcojel
Avantin
i-Propanol
1-Methylethanol
2-Propyl alcohol
Alcolo
Isohol
Lavacol
Lutosol
Propol
Alcosolve 2
1-Methylethyl alcohol
Imsol A
Arquad DMCB
Alcosolve
Spectrar
i-Propylalkohol
n-Propan-2-ol
Combi-schutz
i-Propyl alcohol
Isopropyl alcohol, rubbing
Iso-propylalkohol
Alcool isopropilico
Visco 1152
Alcool isopropylique
Sterisol hand disinfectant
i-Propanol [German]
Rubbing alcohol
ISO-PROPANOL
sec-Propanol
iPrOH
i-Propylalkohol [German]
Iso-propyl alcohol
Iso-propylalkohol [German]
Alcool isopropilico [Italian]
Alcool isopropylique [French]
Caswell No. 507
isopropylalcohol
FEMA Number 2929
iso-propylalcohol
propanol-2
MFCD00011674
FEMA No. 2929
CCRIS 2308
HSDB 116
UNII-ND2M416302
Isopropyl alcohol [USP]
EINECS 200-661-7
UN1219
NSC 135801
BRN 0635639
AI3-01636
CHEBI:17824
KFZMGEQAYNKOFK-UHFFFAOYSA-N
ND2M416302
2-Propanol, anhydrous
NCGC00090917-01
DSSTox_CID_762
Isopropyl alcohol (USP)
DSSTox_RID_75777
DSSTox_GSID_20762
Isopropyl alcohol (manufacture strong-acid process)
Isopropanol, 99.5+%, pure
2-Propanol, USP, 99.0%
Isopropyl alcohol (manufacturing-strong acid process only)
Isopropanol, 99.5%, for HPLC
Isopropanol, 99.5+%, extra pure
Isopropanol, 99.5%, for analysis
2-Propanol, ACS reagent, >=99.5%
CAS-67-63-0
Isopropyl alcohol (only persons who manufacture by the strong acid process are subject, supplier notification not required)
Isopropanol, 99.5%, for spectroscopy ACS
Isopropanol, 99.5%, for HPLC gradient grade
Isopropanol, 99.8%, Extra Dry, AcroSeal(R)
Isopropyl alcohol [USAN]
isoproylalcohol
Virahol
i-propylalcohol
Isopropanol, 99%, for biochemistry and histology, AcroSeal(R)
Isopropanol, 99.8%, for electronic use (MOS), residue free
Lavaco
Isopropylalkohol
2propanol
2-propylalcohol
isopropy alcohol
isoproyl alcohol
Isopropanol, 99.5%, Extra Dry over Molecular Sieve, AcroSeal(R)
2-PROPANOL, ISOPROPANOL
Isopropyl-alcohol
propane-2ol
Isopropanol, 99+%, specified according to the requirements of Ph.Eur.
propan-2ol
2-propano
Isopropryl alcohol
propane-2-ol
2 -propanol
2- propanol
propan 2-ol
iso-PrOH
Isopropyl Alcohol
i-PrOH
Isopro (TN)
Recovered Isopropanol
Tissue Dry Dehydrant
Isopropyl Alcohol C+
Hibistat (Salt/Mix)
Isopropanol, technical
i-Pr-OH
Propane, 2-hydroxy-
2-Propanol, Ph Eur
iso-C3H7OH
Isopropanol (JP17)
Isopropanol (Recovered)
Isopropanol ACS reagent
2-Propanol, GC Grade
2-Propanol, for HPLC
AC1L1GOQ
AC1Q1QDY
Isopropyl Alcohol - GMP
2-Propanol, ACS reagent
2-Propanol, HPLC Grade
ACMC-1BI1R
CHEMBL582
Isopropyl alcohol HPLC/UV
2-Propanol, 99.5%
EC 200-661-7
IPS 1
Isopropanol, 70% in water
Isopropanol, 70% in H2O
4-01-00-01461 (Beilstein Handbook Reference)
KSC353M9P
Ethyl, 1-hydroxy-1-methyl-
ISOPROPYL ALCOHOL, ACS
Isopropanol, Isopropyl Alcohol
Isopropanol, 99.5% anhydrous
WLN: QY1&1
2-Propanol, analytical standard
Isopropanol or isopropyl alcohol
ISOPROPYL ALCOHOL(2-D)
2-Propanol, LR, >=99%
DTXSID7020762
BDBM36154
CTK2F3697
2-Propanol, anhydrous, 99.5%
Oi+/-u>>u (1/4)
ZINC901159
ISOPROPYL ALCOHOL, U.S.P.
2-Propanol, AR, >=99.5%
KS-00000VM0
2-Propanol, 99.9%, PRA grade
2-Propanol, for HPLC, 99.5%
2-Propanol, for HPLC, 99.9%
2-Propanol, technical grade, 95%
Isopropanol, 99.6%, ACS reagent
Isopropyl Alcohol Reagent Grade ACS
Oi+/-u (1/4)
Tox21_111039
Tox21_202475
2-Propanol, 99.5%, HPLC grade
2-Propanol, Spectrophotometric Grade
ANW-35384
NSC135801
Isopropanol, 99+%, for spectroscopy
2-Propanol, histological grade, 99%
AKOS000121012
OU+/-u (1/4)
2-Propanol, for HPLC, >=99.8%
DB02325
LS-1565
MCULE-6646752234
NSC-135801
RL04582
RTR-022706
UN 1219
NCGC00260024-01
2-Propanol, UV HPLC gradient, 99.8%
AN-41893
Isopropyl alcohol, natural, >=98%, FG
Phenolphthalein Solution, Alcoholic 0.5%
Isopropyl alcohol, >=99.7%, FCC, FG
2-Propanol, SAJ first grade, >=99.0%
TR-022706
140-EP2269975A2
140-EP2269977A2
140-EP2269989A1
140-EP2269993A1
140-EP2269994A1
140-EP2269997A2
140-EP2270000A1
140-EP2270003A1
140-EP2270008A1
140-EP2270009A1
140-EP2270011A1
140-EP2270012A1
140-EP2270013A1
140-EP2270014A1
140-EP2270113A1
140-EP2272516A2
140-EP2272517A1
140-EP2272537A2
140-EP2272813A2
140-EP2272826A1
140-EP2272827A1
140-EP2272830A1
140-EP2272832A1
140-EP2272837A1
140-EP2272839A1
140-EP2272840A1
140-EP2272841A1
140-EP2272849A1
140-EP2272935A1
140-EP2274983A1
140-EP2275398A1
140-EP2275401A1
140-EP2275404A1
140-EP2275410A1
140-EP2275415A2
140-EP2275419A2
140-EP2275423A1
140-EP2275424A1
140-EP2275425A1
140-EP2275427A1
140-EP2275469A1
140-EP2277507A1
140-EP2277848A1
140-EP2277865A1
140-EP2277866A1
140-EP2277867A2
140-EP2277868A1
140-EP2277869A1
140-EP2277870A1
140-EP2277875A2
140-EP2277876A1
140-EP2277877A1
140-EP2277878A1
140-EP2277881A1
140-EP2280003A2
140-EP2280005A1
140-EP2280006A1
140-EP2280007A1
140-EP2280014A2
140-EP2281559A1
140-EP2281817A1
140-EP2281818A1
140-EP2281821A1
140-EP2281824A1
140-EP2281899A2
140-EP2283811A1
140-EP2284158A1
140-EP2284165A1
140-EP2284166A1
140-EP2284167A2
140-EP2284168A2
140-EP2284169A1
140-EP2284170A1
140-EP2284174A1
140-EP2284178A2
140-EP2284179A2
140-EP2286795A1
140-EP2286811A1
140-EP2286812A1
140-EP2286915A2
140-EP2287152A2
140-EP2287153A1
140-EP2287154A1
140-EP2287155A1
140-EP2287158A1
140-EP2287161A1
140-EP2287162A1
140-EP2287165A2
140-EP2287166A2
140-EP2287167A1
140-EP2287168A2
140-EP2287940A1
140-EP2289509A2
140-EP2289868A1
140-EP2289879A1
140-EP2289881A1
140-EP2289884A1
140-EP2289885A1
140-EP2289890A1
140-EP2289892A1
140-EP2289897A1
140-EP2289965A1
140-EP2292222A1
140-EP2292233A2
140-EP2292234A1
140-EP2292593A2
140-EP2292597A1
140-EP2292609A1
140-EP2292612A2
140-EP2292613A1
140-EP2292614A1
140-EP2292617A1
140-EP2292620A2
140-EP2292621A1
140-EP2292622A1
140-EP2292625A1
140-EP2292628A2
140-EP2295055A2
140-EP2295401A2
140-EP2295402A2
140-EP2295406A1
140-EP2295411A1
140-EP2295415A1
140-EP2295417A1
140-EP2295422A2
140-EP2295423A1
140-EP2295424A1
140-EP2295426A1
140-EP2295427A1
140-EP2295429A1
140-EP2295432A1
140-EP2295435A1
140-EP2295436A1
140-EP2295437A1
140-EP2298305A1
140-EP2298313A1
140-EP2298729A1
140-EP2298732A1
140-EP2298735A1
140-EP2298742A1
140-EP2298746A1
140-EP2298747A1
140-EP2298749A1
140-EP2298752A1
140-EP2298755A1
140-EP2298760A1
140-EP2298761A1
140-EP2298763A1
140-EP2298767A1
140-EP2298768A1
140-EP2298769A1
140-EP2298770A1
140-EP2298773A1
140-EP2298775A1
140-EP2298776A1
140-EP2298778A1
140-EP2298828A1
140-EP2299785A1
140-EP2301627A1
140-EP2301912A2
140-EP2301913A1
140-EP2301914A1
140-EP2301916A2
140-EP2301925A1
140-EP2301931A1
140-EP2301934A1
140-EP2301940A1
140-EP2301983A1
140-EP2302003A1
140-EP2305033A1
140-EP2305625A1
140-EP2305629A1
140-EP2305633A1
140-EP2305641A1
140-EP2305643A1
140-EP2305647A1
140-EP2305649A1
140-EP2305651A1
140-EP2305658A1
140-EP2305660A1
140-EP2305662A1
140-EP2305663A1
140-EP2305666A1
140-EP2305668A1
140-EP2305670A1
140-EP2305671A1
140-EP2305679A1
140-EP2305681A1
140-EP2305682A1
140-EP2305683A1
140-EP2305684A1
140-EP2305687A1
140-EP2305688A1
140-EP2305695A2
140-EP2305696A2
140-EP2305697A2
140-EP2305698A2
140-EP2305825A1
140-EP2306788A1
140-EP2306789A1
140-EP2308471A1
140-EP2308492A1
140-EP2308562A2
140-EP2308812A2
140-EP2308828A2
140-EP2308839A1
140-EP2308849A1
140-EP2308850A1
140-EP2308851A1
140-EP2308854A1
140-EP2308855A1
140-EP2308857A1
140-EP2308867A2
140-EP2308869A1
140-EP2308870A2
140-EP2308873A1
140-EP2308877A1
140-EP2308878A2
140-EP2308879A1
140-EP2308926A1
140-EP2309564A1
140-EP2311453A1
140-EP2311464A1
140-EP2311494A1
140-EP2311796A1
140-EP2311797A1
140-EP2311798A1
140-EP2311799A1
140-EP2311801A1
140-EP2311802A1
140-EP2311803A1
140-EP2311806A2
140-EP2311808A1
140-EP2311811A1
140-EP2311812A1
140-EP2311813A1
140-EP2311814A1
140-EP2311815A1
140-EP2311820A1
140-EP2311821A1
140-EP2311823A1
140-EP2311824A1
140-EP2311825A1
140-EP2311829A1
140-EP2311830A1
140-EP2311831A1
140-EP2311832A1
140-EP2311833A1
140-EP2311838A1
140-EP2311839A1
140-EP2311842A2
140-EP2314558A1
140-EP2314576A1
140-EP2314577A1
140-EP2314578A1
140-EP2314585A1
140-EP2314587A1
140-EP2314589A1
140-EP2314591A1
140-EP2316837A1
140-EP2371808A1
140-EP2371814A1
140-EP2372017A1
140-EP2374454A1
140-EP2374790A1
140-EP2374791A1
140-EP2380874A2
141-EP2269977A2
141-EP2269989A1
141-EP2270007A1
141-EP2270017A1
141-EP2270113A1
141-EP2270114A1
141-EP2272537A2
141-EP2272848A1
141-EP2272849A1
141-EP2272935A1
141-EP2272972A1
141-EP2272973A1
141-EP2274983A1
141-EP2275409A1
141-EP2275411A2
141-EP2275469A1
141-EP2277565A2
141-EP2277566A2
141-EP2277567A1
141-EP2277568A2
141-EP2277569A2
141-EP2277570A2
141-EP2277866A1
141-EP2277867A2
141-EP2277872A1
141-EP2277879A1
141-EP2277945A1
141-EP2280003A2
141-EP2280010A2
141-EP2280014A2
141-EP2284159A1
141-EP2284160A1
141-EP2284165A1
141-EP2284167A2
141-EP2284168A2
141-EP2284169A1
141-EP2286811A1
141-EP2287152A2
141-EP2287161A1
141-EP2287162A1
141-EP2287165A2
141-EP2287166A2
141-EP2287168A2
141-EP2289877A1
141-EP2289890A1
141-EP2289892A1
141-EP2292227A2
141-EP2292280A1
141-EP2292590A2
141-EP2292601A1
141-EP2292602A1
141-EP2292603A1
141-EP2292606A1
141-EP2292612A2
141-EP2292618A1
141-EP2292619A1
141-EP2292620A2
141-EP2292622A1
141-EP2293650A1
141-EP2295402A2
141-EP2295409A1
141-EP2295415A1
141-EP2295417A1
141-EP2295421A1
141-EP2295430A2
141-EP2295431A2
141-EP2295437A1
141-EP2298734A2
141-EP2298735A1
141-EP2298737A1
141-EP2298739A1
141-EP2298740A1
141-EP2298741A1
141-EP2298747A1
141-EP2298750A1
141-EP2298758A1
141-EP2298759A1
141-EP2298767A1
141-EP2298768A1
141-EP2298770A1
141-EP2298771A2
141-EP2298774A1
141-EP2298775A1
141-EP2298778A1
141-EP2298828A1
141-EP2299509A1
141-EP2299510A1
141-EP2301534A1
141-EP2301920A1
141-EP2301921A1
141-EP2301926A1
141-EP2301929A1
141-EP2301935A1
141-EP2301936A1
141-EP2301941A1
141-EP2305219A1
141-EP2305243A1
141-EP2305644A1
141-EP2305649A1
141-EP2305652A2
141-EP2305664A1
141-EP2305667A2
141-EP2305668A1
141-EP2305670A1
141-EP2305672A1
141-EP2305674A1
141-EP2305680A2
141-EP2305682A1
141-EP2305683A1
141-EP2305684A1
141-EP2305769A2
141-EP2308562A2
141-EP2308812A2
141-EP2308843A1
141-EP2308857A1
141-EP2308858A1
141-EP2308861A1
141-EP2308867A2
141-EP2308870A2
141-EP2308872A1
141-EP2308873A1
141-EP2308875A1
141-EP2308879A1
141-EP2309584A1
141-EP2311451A1
141-EP2311815A1
141-EP2311816A1
141-EP2311817A1
141-EP2311824A1
141-EP2311826A2
141-EP2311831A1
141-EP2311837A1
141-EP2311839A1
141-EP2311840A1
141-EP2314558A1
141-EP2314587A1
141-EP2314589A1
141-EP2316450A1
141-EP2316470A2
141-EP2316828A1
141-EP2316829A1
141-EP2316831A1
141-EP2316834A1
141-EP2316835A1
141-EP2316836A1
141-EP2316837A1
141-EP2316905A1
141-EP2316906A2
141-EP2371810A1
141-EP2371812A1
141-EP2372017A1
141-EP2372804A1
141-EP2374454A1
141-EP2374526A1
141-EP2374783A1
141-EP2378585A1
2-Propanol, JIS special grade, >=99.5%
2-Propanol, Laboratory Reagent, >=99.5%
2-Propanol, meets USP testing specifications
I0163
I0164
I0277
2-Propanol, >72% in a non hazardous diluent
5051-EP2269975A2
5051-EP2269977A2
5051-EP2269986A1
5051-EP2269997A2
5051-EP2269999A1
5051-EP2270008A1
5051-EP2270015A1
5051-EP2272817A1
5051-EP2272825A2
5051-EP2272829A2
5051-EP2272835A1
5051-EP2272844A1
5051-EP2274983A1
5051-EP2275403A1
5051-EP2275411A2
5051-EP2275413A1
5051-EP2275414A1
5051-EP2275415A2
5051-EP2275423A1
5051-EP2277858A1
5051-EP2277871A1
5051-EP2280001A1
5051-EP2281821A1
5051-EP2284148A1
5051-EP2284157A1
5051-EP2284167A2
5051-EP2284168A2
5051-EP2284169A1
5051-EP2286811A1
5051-EP2287153A1
5051-EP2287155A1
5051-EP2287156A1
5051-EP2287161A1
5051-EP2287162A1
5051-EP2289509A2
5051-EP2289510A1
5051-EP2289879A1
5051-EP2289890A1
5051-EP2289894A2
5051-EP2292589A1
5051-EP2292592A1
5051-EP2292607A2
5051-EP2292617A1
5051-EP2295401A2
5051-EP2295406A1
5051-EP2295409A1
5051-EP2295414A1
5051-EP2295423A1
5051-EP2295437A1
5051-EP2298735A1
5051-EP2298747A1
5051-EP2298753A1
5051-EP2298755A1
5051-EP2298761A1
5051-EP2298763A1
5051-EP2298768A1
5051-EP2298770A1
5051-EP2298772A1
5051-EP2298775A1
5051-EP2301544A1
5051-EP2301627A1
5051-EP2301911A1
5051-EP2301919A1
5051-EP2305254A1
5051-EP2305625A1
5051-EP2305642A2
5051-EP2305647A1
5051-EP2305655A2
5051-EP2305662A1
5051-EP2305667A2
5051-EP2305671A1
5051-EP2305672A1
5051-EP2305676A1
5051-EP2305682A1
5051-EP2305684A1
5051-EP2305687A1
5051-EP2305769A2
5051-EP2305808A1
5051-EP2308492A1
5051-EP2308838A1
5051-EP2308839A1
5051-EP2308857A1
5051-EP2308864A1
5051-EP2308866A1
5051-EP2308877A1
5051-EP2308879A1
5051-EP2311805A1
5051-EP2311807A1
5051-EP2311830A1
5051-EP2314581A1
5051-EP2314586A1
5051-EP2314591A1
5051-EP2316827A1
5051-EP2371805A1
5051-EP2371811A2
5051-EP2374783A1
5051-EP2377841A1
5051-EP2377848A1
5051-EP2380568A1
C01845
D00137
11948-EP2270006A1
11948-EP2270011A1
11948-EP2272537A2
11948-EP2275423A1
11948-EP2277866A1
11948-EP2280014A2
11948-EP2281559A1
11948-EP2284148A1
11948-EP2284174A1
11948-EP2287168A2
11948-EP2289509A2
11948-EP2292590A2
11948-EP2292612A2
11948-EP2292622A1
11948-EP2292628A2
11948-EP2295401A2
11948-EP2295409A1
11948-EP2298729A1
11948-EP2298734A2
11948-EP2301534A1
11948-EP2301939A1
11948-EP2305250A1
11948-EP2305652A2
11948-EP2305663A1
11948-EP2305667A2
11948-EP2305682A1
11948-EP2305695A2
11948-EP2305696A2
11948-EP2305697A2
11948-EP2305698A2
11948-EP2308812A2
11948-EP2308873A1
11948-EP2308879A1
11948-EP2311451A1
11948-EP2311824A1
11948-EP2311831A1
11948-EP2316450A1
32837-EP2284167A2
32837-EP2284168A2
32837-EP2295411A1
32837-EP2301933A1
32837-EP2308812A2
32837-EP2308855A1
32837-EP2311820A1
32837-EP2311827A1
32837-EP2311850A1
40330-EP2269977A2
40330-EP2269979A1
40330-EP2270003A1
40330-EP2289881A1
40330-EP2289886A1
40330-EP2292222A1
40330-EP2295402A2
40330-EP2295423A1
40330-EP2298761A1
40330-EP2301544A1
40330-EP2305682A1
40330-EP2305684A1
40330-EP2305687A1
40330-EP2308848A1
40330-EP2308867A2
40330-EP2308870A2
40330-EP2308879A1
40330-EP2311830A1
40330-EP2371805A1
40330-EP2380871A1
45166-EP2272813A2
45166-EP2272849A1
45166-EP2289509A2
45166-EP2289879A1
45166-EP2292593A2
45166-EP2292616A1
45166-EP2292619A1
45166-EP2292622A1
45166-EP2298773A1
45166-EP2305250A1
45166-EP2305659A1
45166-EP2311821A1
45166-EP2380873A1
45166-EP2380874A2
51765-EP2270114A1
51765-EP2277866A1
51765-EP2292628A2
51765-EP2308510A1
51765-EP2308867A2
51765-EP2308870A2
51765-EP2311824A1
97840-EP2269992A1
97840-EP2289885A1
97840-EP2289896A1
97840-EP2292608A1
97840-EP2298749A1
97840-EP2305685A1
97840-EP2305686A1
97840-EP2380874A2
ISOPROPYL ALCOHOL(1,1,1,3,3,3-D6)
2-+/-u (1/4)
300128X
InChI=1/C3H8O/c1-3(2)4/h3-4H,1-2H
SR-01000944474
ISOPROPYL ALCOHOL(1,1,1,2,3,3,3-D7)
J-510285
SR-01000944474-1
2-Propanol, >10 - 50% in a non hazardous diluent
2-Propanol, >50 - 72% in a non hazardous diluent
2-Propanol, ACS spectrophotometric grade, >=99.5%
2-Propanol, p.a., ACS reagent, reag. ISO, 99.8%
I14-19476
2-Propanol, reag. ISO, UV HPLC spectroscopic, 99.7%
2-Propanol, BioReagent, for molecular biology, >=99.5%
2-Propanol, electronic grade, 99.999% trace metals basis
2-Propanol, puriss. p.a., ACS reagent, >=99.8% (GC)
2-Propanol, Vetec(TM) reagent grade, anhydrous, >=99.5%
2-Propanol, BioUltra, for molecular biology, >=99.5% (GC)
Isopropanol or isopropyl alcohol [UN1219] [Flammable liquid]
Isopropanol or isopropyl alcohol [UN1219] [Flammable liquid]
Isopropyl alcohol, EuropePharmacopoeia (EP) Reference Standard
Isopropyl alcohol, meets EP, BP, USP testing specifications
2-Propanol, >=99.7%, suitable for absorption spectrum analysis
2-Propanol, semiconductor grade PURANAL(TM) (Honeywell 17829)
2-Propanol, United States Pharmacopeia (USP) Reference Standard
2-Propanol, >=99.7%, for residue analysis, suitable for 1000 per JIS
2-Propanol, HPLC Plus, for HPLC, GC, and residue analysis, 99.9%
2-Propanol, Pharmaceutical Secondary Standard; Certified Reference Material
2-Propanol, semiconductor grade MOS PURANAL(TM) (Honeywell 17930)
2-Propanol, semiconductor grade SLSI PURANAL(TM) (Honeywell 17030)
2-Propanol, semiconductor grade ULSI PURANAL(TM) (Honeywell 17022)
2-Propanol, semiconductor grade VLSI PURANAL(TM) (Honeywell 17604)
2-Propanol, HPLC Plus, for HPLC, GC, and residue analysis, 99.9%, poly coated bottles
2-Propanol, puriss. p.a., ACS reagent, reag. ISO, reag. Ph. Eur., >=99.8% (GC)
2-Propanol, puriss., meets analytical specification of Ph. Eur., BP, USP, >=99.5% (GC)
IOH

> <TPSA>
20.2

> <TotalAidCount>
428

> <TotalFormalCharge>
0

> <XLogP>
0.3

> <database>
PubChem Compound

> <matchingCount>
176

> <primaryID>
3776

> <queryTranslation>
7628[CompoundID] OR 244[CompoundID] OR 25059[CompoundID] OR 7618[CompoundID] OR 7641[CompoundID] OR 5053[CompoundID] OR 637511[CompoundID] OR 7714[CompoundID] OR 7762[CompoundID] OR 25429[CompoundID]
OR 8842[CompoundID] OR 7794[CompoundID] OR 637566[CompoundID] OR 7843[CompoundID] OR 174[CompoundID] OR 7870[CompoundID] OR 86102[CompoundID] OR 7888[CompoundID] OR 7896[CompoundID] OR 1140[CompoundID
] OR 8042[CompoundID] OR 8058[CompoundID] OR 8078[CompoundID] OR 8087[CompoundID] OR 8117[CompoundID] OR 8133[CompoundID] OR 115224[CompoundID] OR 8175[CompoundID] OR 8194[CompoundID] OR 445639[Compou
ndID] OR 4944[CompoundID] OR 8294[CompoundID] OR 93541[CompoundID] OR 8360[CompoundID] OR 8363[CompoundID] OR 656612[CompoundID] OR 125098[CompoundID] OR 3352[CompoundID] OR 3303913[CompoundID] OR 648
05[CompoundID] OR 31200[CompoundID] OR 1712058[CompoundID] OR 31236[CompoundID] OR 31239[CompoundID] OR 31265[CompoundID] OR 31266[CompoundID] OR 31276[CompoundID] OR 6950273[CompoundID] OR 518659[Com
poundID] OR 14896[CompoundID] OR 14798[CompoundID] OR 14829[CompoundID] OR 14830[CompoundID] OR 8635[CompoundID] OR 23266[CompoundID] OR 4284[CompoundID] OR 8693[CompoundID] OR 22311[CompoundID] OR 87
59[CompoundID] OR 8785[CompoundID] OR 2723810[CompoundID] OR 8857[CompoundID] OR 3893[CompoundID] OR 9936739[CompoundID] OR 516892[CompoundID] OR 5430[CompoundID] OR 9017[CompoundID] OR 15433[Compound
ID] OR 107720[CompoundID] OR 9552081[CompoundID] OR 164825[CompoundID] OR 10275455[CompoundID] OR 16666[CompoundID] OR 9839306[CompoundID] OR 5282227[CompoundID] OR 23676745[CompoundID] OR 32881[Compo
undID] OR 91581[CompoundID] OR 39800[CompoundID] OR 33344[CompoundID] OR 15962220[CompoundID] OR 33528[CompoundID] OR 5365075[CompoundID] OR 62829[CompoundID] OR 162381[CompoundID] OR 517202[CompoundI
D] OR 6433353[CompoundID] OR 2730[CompoundID] OR 5372405[CompoundID] OR 36081[CompoundID] OR 3120[CompoundID] OR 3017[CompoundID] OR 2969[CompoundID] OR 18827[CompoundID] OR 19518[CompoundID] OR 19658
[CompoundID] OR 38283[CompoundID] OR 2758[CompoundID] OR 10112[CompoundID] OR 10340[CompoundID] OR 712[CompoundID] OR 5794[CompoundID] OR 3347[CompoundID] OR 104150[CompoundID] OR 2912[CompoundID] OR
2450[CompoundID] OR 40326[CompoundID] OR 40585[CompoundID] OR 517055[CompoundID] OR 10913[CompoundID] OR 108242[CompoundID] OR 62097[CompoundID] OR 41679[CompoundID] OR 54680676[CompoundID] OR 62118[C
ompoundID] OR 753[CompoundID] OR 1030[CompoundID] OR 23673837[CompoundID] OR 54678504[CompoundID] OR 11442[CompoundID] OR 11463[CompoundID] OR 22230[CompoundID] OR 440917[CompoundID] OR 6054[CompoundI
D] OR 43234[CompoundID] OR 22629[CompoundID] OR 3039[CompoundID] OR 2735067[CompoundID] OR 6144[CompoundID] OR 702[CompoundID] OR 284[CompoundID] OR 176[CompoundID] OR 91688[CompoundID] OR 22947[Compo
undID] OR 47445[CompoundID] OR 1711973[CompoundID] OR 243[CompoundID] OR 10342051[CompoundID] OR 5281875[CompoundID] OR 3776[CompoundID] OR 6224[CompoundID] OR 104926[CompoundID] OR 8755[CompoundID] O
R 338[CompoundID] OR 123622[CompoundID] OR 23954[CompoundID] OR 6334[CompoundID] OR 2537[CompoundID] OR 24261[CompoundID] OR 23665760[CompoundID] OR 83975[CompoundID] OR 784[CompoundID] OR 24437[Compo
undID] OR 5360315[CompoundID] OR 311[CompoundID] OR 6549[CompoundID] OR 107689[CompoundID] OR 17100[CompoundID] OR 24976875[CompoundID] OR 6654[CompoundID] OR 71245[CompoundID] OR 6442842[CompoundID]
OR 62334[CompoundID] OR 54698175[CompoundID] OR 6328154[CompoundID] OR 24762[CompoundID] OR 440950[CompoundID] OR 7017[CompoundID] OR 5281873[CompoundID] OR 323[CompoundID] OR 5281167[CompoundID] OR 7
175[CompoundID] OR 7292[CompoundID] OR 6335613[CompoundID] OR 7456[CompoundID] OR 7462[CompoundID]

> <resultIndex>
151

> <resultRange>
1-176

> <textQuery>
7628,244,25059,7618,7641,5053,637511,7714,7762,25429,8842,7794,637566,7843,174,7870,86102,7888,7896,1140,8042,8058,8078,8087,8117,8133,115224,8175,8194,445639,4944,8294,93541,8360,8363,656612,125098,3
352,3303913,64805,31200,1712058,31236,31239,31265,31266,31276,6950273,518659,14896,14798,14829,14830,8635,23266,4284,8693,22311,8759,8785,2723810,8857,3893,9936739,516892,5430,9017,15433,107720,955208
1,164825,10275455,16666,9839306,5282227,23676745,32881,91581,39800,33344,15962220,33528,5365075,62829,162381,517202,6433353,2730,5372405,36081,3120,3017,2969,18827,19518,19658,38283,2758,10112,10340,7
12,5794,3347,104150,2912,2450,40326,40585,517055,10913,108242,62097,41679,54680676,62118,753,1030,23673837,54678504,11442,11463,22230,440917,6054,43234,22629,3039,2735067,6144,702,284,176,91688,22947,
47445,1711973,243,10342051,5281875,3776,6224,104926,8755,338,123622,23954,6334,2537,24261,23665760,83975,784,24437,5360315,311,6549,107689,17100,24976875,6654,71245,6442842,62334,54698175,6328154,2476
2,440950,7017,5281873,323,5281167,7175,7292,6335613,7456,7462

$$$$
3,352
  SciTegic10191915303D

 30 31  0  0  0  0            999 V2000
   -2.8890   -1.1440   -0.1560 Cl  0  0
    2.5490   -0.4690   -0.9360 Cl  0  0
   -0.6620    3.7660    1.6410 S   0  0
    1.5100    4.6110    0.5100 F   0  0
    1.7990    3.2050    2.2290 F   0  0
    1.1720    5.3200    2.6070 F   0  0
   -0.5470   -5.5180   -2.1880 F   0  0
   -0.0670   -5.7810   -0.0180 F   0  0
    1.5780   -5.4000   -1.4880 F   0  0
   -1.4160    4.8400    1.0210 O   0  0
   -0.3030    0.4770   -0.3610 N   0  0
   -0.3810    1.3710   -1.3670 N   0  0
   -0.3420    0.5350    2.1910 N   0  0
   -0.7310    4.9040   -2.0860 N   0  0
   -0.5180    2.4840    0.5100 C   0  0
   -0.3830    1.1150    0.8360 C   0  0
   -0.1640   -0.8710   -0.5550 C   0  0
   -0.5140    2.6150   -0.8890 C   0  0
   -1.2950   -1.7270   -0.4820 C   0  0
    1.1130   -1.4280   -0.8300 C   0  0
    1.0550    4.2540    1.7540 C   0  0
    0.1250   -3.6520   -0.9550 C   0  0
   -1.1410   -3.1110   -0.6820 C   0  0
    1.2460   -2.8140   -1.0270 C   0  0
    0.2750   -5.1170   -1.1660 C   0  0
   -0.6330    3.8770   -1.5490 C   0  0
   -0.4120    1.1290    2.9920 H   0  0
   -0.2420   -0.4530    2.3110 H   0  0
   -1.9940   -3.7710   -0.6270 H   0  0
    2.2130   -3.2480   -1.2400 H   0  0
  1 19  1  0
  2 20  1  0
  3 10  2  0
  3 15  1  0
  3 21  1  0
  4 21  1  0
  5 21  1  0
  6 21  1  0
  7 25  1  0
  8 25  1  0
  9 25  1  0
 11 12  1  0
 11 16  1  0
 11 17  1  0
 12 18  2  0
 13 16  1  0
 14 26  3  0
 15 16  2  0
 15 18  1  0
 17 19  2  0
 17 20  1  0
 18 26  1  0
 19 23  1  0
 20 24  2  0
 22 23  2  0
 22 24  1  0
 22 25  1  0
 13 27  1  0
 13 28  1  0
 23 29  1  0
 24 30  1  0
M  END
> <Name>
3,352

> <OBJECTID>
9223372672513277963

> <ActiveAidCount>
78

> <AtomChiralCount>
1

> <AtomChiralDefCount>
0

> <AtomChiralUndefCount>
1

> <BondChiralCount>
0

> <BondChiralDefCount>
0

> <BondChiralUndefCount>
0

> <CID>
3352

> <CanonicalSmiles>
C1=C(C=C(C(=C1Cl)N2C(=C(C(=N2)C#N)S(=O)C(F)(F)F)N)Cl)C(F)(F)F

> <Complexity>
599

> <CovalentUnitCount>
1

> <CreateDate>
2005/03/25 00:00

> <HeavyAtomCount>
26

> <HydrogenBondAcceptorCount>
11

> <HydrogenBondDonorCount>
1

> <IUPACName>
5-amino-1-[2,6-dichloro-4-(trifluoromethyl)phenyl]-4-(trifluoromethylsulfinyl)pyrazole-3-carbonitrile

> <InChI>
InChI=1S/C12H4Cl2F6N4OS/c13-5-1-4(11(15,16)17)2-6(14)8(5)24-10(22)9(7(3-21)23-24)26(25)12(18,19)20/h1-2H,22H2

> <InChIKey>
ZOCSXAVNDGMNBV-UHFFFAOYSA-N

> <IsomericSmiles>
C1=C(C=C(C(=C1Cl)N2C(=C(C(=N2)C#N)S(=O)C(F)(F)F)N)Cl)C(F)(F)F

> <IsotopeAtomCount>
0

> <MeSHHeading>
fipronil

> <MeSHTerm>
5-amino-1-(2,6-dichloro-alpha,alpha,alpha-trifluoro-p-tolyl)-4-trifluoromethylsulfinylpyrazole-3-carbonitile
fipronil

> <MolecularFormula>
C12H4Cl2F6N4OS

> <MolecularWeight>
437.1

> <PharmAction>
Toxic Actions
Insecticides
Therapeutic Uses
Specialty Uses of Chemicals
Anti-Infective Agents
Chemical Actions and Uses
Agrochemicals
Pesticides
Pharmacologic Actions
Antiparasitic Agents

> <RotatableBondCount>
2

> <Smiles>
Clc1cc(C(F)(F)F)cc(c1n2c(c(c(C#N)n2)S(C(F)(F)F)=O)N)Cl

> <SourceCategory>
Legacy Depositors
Chemical Vendors
Research and Development
Curation Efforts
Governmental Organizations
NIH Initiatives
Subscription Services
Journal Publishers

> <Synonym>
fipronil
120068-37-3
Termidor
Fluocyanobenpyrazole
Fipronil [ISO]
C12H4Cl2F6N4OS
HSDB 7051
RM 1601
MB 46030
CHEMBL101326
5-amino-1-[2,6-dichloro-4-(trifluoromethyl)phenyl]-4-[(trifluoromethyl)sulfinyl]-1H-pyrazole-3-carbonitrile
CHEBI:83394
M & B 46030
ZOCSXAVNDGMNBV-UHFFFAOYSA-N
5-amino-1-(2,6-dichloro-4-(trifluoromethyl)phenyl)-4-((trifluoromethyl)sulfinyl)-1h-pyrazole-3-carbonitrile
5-amino-1-[2,6-dichloro-4-(trifluoromethyl)phenyl]-4-(trifluoromethylsulfinyl)pyrazole-3-carbonitrile
NCGC00094574-06
5-Amino-3-cyano-1-(2,6-dichloro-4-trifluoromethylphenyl)-4-trifluoromethylsulfinylpyrazole
DSSTox_CID_14609
DSSTox_RID_79176
DSSTox_GSID_34609
1H-Pyrazole-3-carbonitrile, 5-amino-1-[2,6-dichloro-4-(trifluoromethyl)phenyl]-4-[(trifluoromethyl)sulfinyl]-
Q-201115
TopChoice
Frontline Spray
Goliath gel
Maxforce FC
Granedo MC
Grenade MC
Regent TS
Frontline Spot-on
Frontline Top Spot
Termidor 80WG
(RS)-5-Amino-1-(2,6-dichloro-4-trifluoromethylphenyl)-4-(trifluoromethylsulfinyl)pyrazole-3-carbonitrile
1H-Pyrazole-3-carbonitrile, 5-amino-1-(2,6-dichloro-4-(trifluoromethyl)phenyl)-4-((trifluoromethyl)sulfinyl)-
CAS-120068-37-3
Over'n Out
Fipronil (JAN)
(+/-)-Fipronil
Fipronil [INN:BAN]
Maxforce FC Select Roach Killer Bait Gel
AC1L1FQN
UPCMLD-DP011
EC 424-610-5
CBiol_001754
SCHEMBL15088
BSPBio_001315
BSPBio_002266
KBioGR_000035
KBioSS_000035
MLS004712079
SPECTRUM1505354
DTXSID4034609
UPCMLD-DP011:001
UPCMLD-DP011:002
BCBcMAP01_000152
KBio2_000035
KBio2_002603
KBio2_005171
KBio3_000069
KBio3_000070
KS-00000IPK
Bio1_000040
Bio1_000529
Bio1_001018
Bio2_000035
Bio2_000515
HMS1361B17
HMS1791B17
HMS1922F08
HMS1989B17
HMS2093D09
HMS3402B17
Pharmakon1600-01505354
BCP14931
Tox21_111300
Tox21_301114
AC-427
BDBM50106148
MFCD00867812
NSC758960
AKOS015960931
Tox21_111300_1
ACN-048916
AN-5938
CCG-213975
KS-5066
NSC-758960
RM-1601
Fipronil 100 microg/mL in Acetonitrile
IDI1_033785
NCGC00094574-01
NCGC00094574-02
NCGC00094574-03
NCGC00094574-05
NCGC00094574-07
NCGC00094574-08
NCGC00094574-09
NCGC00094574-10
NCGC00094574-11
NCGC00094574-12
NCGC00094574-13
NCGC00094574-15
NCGC00255014-01
5-amino-1-(2,6-dichloro-alpha,alpha,alpha-trifluoro-p-tolyl)-4-trifluoromethylsulfinylpyrazole-3-carbonitile
AK343459
BC204895
CC-28429
MB-46030
SC-14106
SMR000777967
SBI-0206839.P001
LS-128077
TL8000532
TR-003335
F0822
Fipronil, PESTANAL(R), analytical standard
FT-0631097
C11099
D01042
K-1417
AB00643326_02
068F373
C-22325
SR-05000002006
SR-05000002006-1
BRD-A50675702-001-03-0
BRD-A50675702-001-04-8
Fipronil, certified reference material, TraceCERT(R)
5-amino-1-(2,6-dichloro-4-trifluoromethylphenyl)-3-cyano-4-trifluoromethylsulfinylpyrazole
5-Amino-1-(2,6-dichloro-4-trifluoromethylphenyl)-3-cyano-4-trifluoromethylsulphinylpyrazole
5-Amino-3-cyano-1-(2,6-dichloro-4-trifluoromethylphenyl)-4-trifluoromethylsulfinyl-pyrazole
5-Amino-3-cyano-1-(2,6-dichloro-4-trifluoromethylphenyl)-4-trifluoromethylsulfinylpyrazol e
5-amino-3-cyano-1-(2,6-dichloro-4-trifluoromethylphenyl)-4-trifluoromethylsulphinylpyrazole
1-(2,6-Dichloro-4-trifluoromethylphenyl)-3-cyano-5-amino-4-(trifluoromethylsulfinyl)pyrazole
5-amino-1 -(2,6-dichloro-4-trifluoromethylphenyl)-4-trifluoromethylsulfinyl-1 H-pyrazole-3-carbonitrile
5-amino-1-(2,6-dichloro-4-(trifluoromethyl) phenyl)-4-((trifluoromethyl) sulfinyl)-1H-pyrazol-3-carbonitrile
5-amino-1-(2,6-dichloro-4-(trifluoromethyl)phenyl)-4-(trifluoromethylsulfinyl)-1H-pyrazole-3-carbonitrile
5-amino-1-(2,6-dichloro-4-trifluoromethylphenyl)-3-cyano-4-trifluoromethylsulphinyl pyrazole
5-Amino-1-[2,6-dichloro-4-(trifluoromethyl)phenyl]-3-cyano-4-(trifluoromethyl)sulfinylpyrazole
5-Amino-1-[2,6-dichloro-4-(trifluoromethyl)phenyl]-4-(trifluoromethyl)sulfinylpyrazole-3-carbonitrile
5-amino-1-[2,6-dichloro-4-(trifluoromethyl)phenyl]-4-[(S)-trifluoromethylsulfinyl]pyrazole-3-carbonitrile
5-amino-1-[2,6-dichloro-4-(trifluoromethyl)phenyl]-4-trifluoromethanesulfinyl-1H-pyrazole-3-carbonitrile
5-amino-3-cyano-1-(2,6-dichloro-4-trifluoromethylphenyl) -4-trifluoromethylsulphinylpyrazole
Fipronil 10 microg/mL in Acetonitrile. Short expiry date due to chemical nature of component(s)

> <TPSA>
104

> <TotalAidCount>
478

> <TotalFormalCharge>
0

> <XLogP>
4.5

> <database>
PubChem Compound

> <matchingCount>
176

> <primaryID>
3352

> <queryTranslation>
7628[CompoundID] OR 244[CompoundID] OR 25059[CompoundID] OR 7618[CompoundID] OR 7641[CompoundID] OR 5053[CompoundID] OR 637511[CompoundID] OR 7714[CompoundID] OR 7762[CompoundID] OR 25429[CompoundID]
OR 8842[CompoundID] OR 7794[CompoundID] OR 637566[CompoundID] OR 7843[CompoundID] OR 174[CompoundID] OR 7870[CompoundID] OR 86102[CompoundID] OR 7888[CompoundID] OR 7896[CompoundID] OR 1140[CompoundID
] OR 8042[CompoundID] OR 8058[CompoundID] OR 8078[CompoundID] OR 8087[CompoundID] OR 8117[CompoundID] OR 8133[CompoundID] OR 115224[CompoundID] OR 8175[CompoundID] OR 8194[CompoundID] OR 445639[Compou
ndID] OR 4944[CompoundID] OR 8294[CompoundID] OR 93541[CompoundID] OR 8360[CompoundID] OR 8363[CompoundID] OR 656612[CompoundID] OR 125098[CompoundID] OR 3352[CompoundID] OR 3303913[CompoundID] OR 648
05[CompoundID] OR 31200[CompoundID] OR 1712058[CompoundID] OR 31236[CompoundID] OR 31239[CompoundID] OR 31265[CompoundID] OR 31266[CompoundID] OR 31276[CompoundID] OR 6950273[CompoundID] OR 518659[Com
poundID] OR 14896[CompoundID] OR 14798[CompoundID] OR 14829[CompoundID] OR 14830[CompoundID] OR 8635[CompoundID] OR 23266[CompoundID] OR 4284[CompoundID] OR 8693[CompoundID] OR 22311[CompoundID] OR 87
59[CompoundID] OR 8785[CompoundID] OR 2723810[CompoundID] OR 8857[CompoundID] OR 3893[CompoundID] OR 9936739[CompoundID] OR 516892[CompoundID] OR 5430[CompoundID] OR 9017[CompoundID] OR 15433[Compound
ID] OR 107720[CompoundID] OR 9552081[CompoundID] OR 164825[CompoundID] OR 10275455[CompoundID] OR 16666[CompoundID] OR 9839306[CompoundID] OR 5282227[CompoundID] OR 23676745[CompoundID] OR 32881[Compo
undID] OR 91581[CompoundID] OR 39800[CompoundID] OR 33344[CompoundID] OR 15962220[CompoundID] OR 33528[CompoundID] OR 5365075[CompoundID] OR 62829[CompoundID] OR 162381[CompoundID] OR 517202[CompoundI
D] OR 6433353[CompoundID] OR 2730[CompoundID] OR 5372405[CompoundID] OR 36081[CompoundID] OR 3120[CompoundID] OR 3017[CompoundID] OR 2969[CompoundID] OR 18827[CompoundID] OR 19518[CompoundID] OR 19658
[CompoundID] OR 38283[CompoundID] OR 2758[CompoundID] OR 10112[CompoundID] OR 10340[CompoundID] OR 712[CompoundID] OR 5794[CompoundID] OR 3347[CompoundID] OR 104150[CompoundID] OR 2912[CompoundID] OR
2450[CompoundID] OR 40326[CompoundID] OR 40585[CompoundID] OR 517055[CompoundID] OR 10913[CompoundID] OR 108242[CompoundID] OR 62097[CompoundID] OR 41679[CompoundID] OR 54680676[CompoundID] OR 62118[C
ompoundID] OR 753[CompoundID] OR 1030[CompoundID] OR 23673837[CompoundID] OR 54678504[CompoundID] OR 11442[CompoundID] OR 11463[CompoundID] OR 22230[CompoundID] OR 440917[CompoundID] OR 6054[CompoundI
D] OR 43234[CompoundID] OR 22629[CompoundID] OR 3039[CompoundID] OR 2735067[CompoundID] OR 6144[CompoundID] OR 702[CompoundID] OR 284[CompoundID] OR 176[CompoundID] OR 91688[CompoundID] OR 22947[Compo
undID] OR 47445[CompoundID] OR 1711973[CompoundID] OR 243[CompoundID] OR 10342051[CompoundID] OR 5281875[CompoundID] OR 3776[CompoundID] OR 6224[CompoundID] OR 104926[CompoundID] OR 8755[CompoundID] O
R 338[CompoundID] OR 123622[CompoundID] OR 23954[CompoundID] OR 6334[CompoundID] OR 2537[CompoundID] OR 24261[CompoundID] OR 23665760[CompoundID] OR 83975[CompoundID] OR 784[CompoundID] OR 24437[Compo
undID] OR 5360315[CompoundID] OR 311[CompoundID] OR 6549[CompoundID] OR 107689[CompoundID] OR 17100[CompoundID] OR 24976875[CompoundID] OR 6654[CompoundID] OR 71245[CompoundID] OR 6442842[CompoundID]
OR 62334[CompoundID] OR 54698175[CompoundID] OR 6328154[CompoundID] OR 24762[CompoundID] OR 440950[CompoundID] OR 7017[CompoundID] OR 5281873[CompoundID] OR 323[CompoundID] OR 5281167[CompoundID] OR 7
175[CompoundID] OR 7292[CompoundID] OR 6335613[CompoundID] OR 7456[CompoundID] OR 7462[CompoundID]

> <resultIndex>
152

> <resultRange>
1-176

> <textQuery>
7628,244,25059,7618,7641,5053,637511,7714,7762,25429,8842,7794,637566,7843,174,7870,86102,7888,7896,1140,8042,8058,8078,8087,8117,8133,115224,8175,8194,445639,4944,8294,93541,8360,8363,656612,125098,3
352,3303913,64805,31200,1712058,31236,31239,31265,31266,31276,6950273,518659,14896,14798,14829,14830,8635,23266,4284,8693,22311,8759,8785,2723810,8857,3893,9936739,516892,5430,9017,15433,107720,955208
1,164825,10275455,16666,9839306,5282227,23676745,32881,91581,39800,33344,15962220,33528,5365075,62829,162381,517202,6433353,2730,5372405,36081,3120,3017,2969,18827,19518,19658,38283,2758,10112,10340,7
12,5794,3347,104150,2912,2450,40326,40585,517055,10913,108242,62097,41679,54680676,62118,753,1030,23673837,54678504,11442,11463,22230,440917,6054,43234,22629,3039,2735067,6144,702,284,176,91688,22947,
47445,1711973,243,10342051,5281875,3776,6224,104926,8755,338,123622,23954,6334,2537,24261,23665760,83975,784,24437,5360315,311,6549,107689,17100,24976875,6654,71245,6442842,62334,54698175,6328154,2476
2,440950,7017,5281873,323,5281167,7175,7292,6335613,7456,7462

$$$$
3,347
  SciTegic10191915303D

 52 54  0  0  1  0            999 V2000
    2.5210   -2.7860    0.1640 N   0  0
    1.5850   -2.1010    0.1310 C   0  0
    0.4080   -1.2390    0.0890 C   0  0  3  0  0  0
   -0.0810   -0.9890   -1.2920 C   0  0
    0.4570    0.0670   -2.0490 C   0  0
   -0.0060    0.3020   -3.3550 C   0  0
   -1.0060   -0.5180   -3.9040 C   0  0
   -1.5460   -1.5750   -3.1510 C   0  0
   -1.0820   -1.8090   -1.8440 C   0  0
   -2.4840   -2.3430   -3.6680 O   0  0
   -3.3900   -1.7780   -4.4400 C   0  0
   -3.8800   -2.4600   -5.5690 C   0  0
   -4.8460   -1.8580   -6.3930 C   0  0
   -5.3250   -0.5720   -6.0910 C   0  0
   -4.8370    0.1120   -4.9640 C   0  0
   -3.8710   -0.4910   -4.1400 C   0  0
    0.7060    0.0000    0.7170 O   0  0
    0.8140   -0.1160    2.0380 C   0  0
    0.6500   -1.1510    2.6390 O   0  0
    1.1630    1.1550    2.7650 C   0  0  3  0  0  0
    2.6320    1.3600    2.8600 C   0  0
    3.4860    0.2570    3.0400 C   0  0
    4.8760    0.4490    3.1290 C   0  0
    5.4150    1.7470    3.0400 C   0  0
    4.5590    2.8500    2.8630 C   0  0
    3.1700    2.6560    2.7720 C   0  0
    7.1100    1.9820    3.1470 Cl  0  0
    0.4920    1.2470    4.1350 C   0  0
   -1.0290    1.1060    4.0580 C   0  0
    1.1200    0.3060    5.1640 C   0  0
   -0.3910   -1.6850    0.6820 H   0  0
    1.2260    0.7000   -1.6310 H   0  0
    0.4070    1.1130   -3.9360 H   0  0
   -1.3590   -0.3350   -4.9080 H   0  0
   -1.4970   -2.6210   -1.2650 H   0  0
   -3.5150   -3.4480   -5.8040 H   0  0
   -5.2210   -2.3840   -7.2590 H   0  0
   -6.0680   -0.1090   -6.7240 H   0  0
   -5.2050    1.1000   -4.7310 H   0  0
   -3.4990    0.0370   -3.2750 H   0  0
    0.9030    2.0170    2.1500 H   0  0
    3.0790   -0.7410    3.1090 H   0  0
    5.5200   -0.4070    3.2650 H   0  0
    4.9580    3.8520    2.7950 H   0  0
    2.5190    3.5070    2.6350 H   0  0
    0.7670    2.1740    4.6380 H   0  0
   -1.5040    1.3000    5.0190 H   0  0
   -1.3070    0.0990    3.7470 H   0  0
   -1.4450    1.8050    3.3330 H   0  0
    0.6510    0.4340    6.1400 H   0  0
    1.0150   -0.7320    4.8510 H   0  0
    2.1840    0.5140    5.2770 H   0  0
  1  2  3  0
  2  3  1  0
  3  4  1  0
  3 17  1  0
  4  5  2  0
  4  9  1  0
  5  6  1  0
  6  7  2  0
  7  8  1  0
  8  9  2  0
  8 10  1  0
 10 11  1  0
 11 12  2  0
 11 16  1  0
 12 13  1  0
 13 14  2  0
 14 15  1  0
 15 16  2  0
 17 18  1  0
 18 19  2  0
 18 20  1  0
 20 21  1  0
 20 28  1  0
 21 22  2  0
 21 26  1  0
 22 23  1  0
 23 24  2  0
 24 25  1  0
 24 27  1  0
 25 26  2  0
 28 29  1  0
 28 30  1  0
  3 31  1  0
  5 32  1  0
  6 33  1  0
  7 34  1  0
  9 35  1  0
 12 36  1  0
 13 37  1  0
 14 38  1  0
 15 39  1  0
 16 40  1  0
 20 41  1  0
 22 42  1  0
 23 43  1  0
 25 44  1  0
 26 45  1  0
 28 46  1  0
 29 47  1  0
 29 48  1  0
 29 49  1  0
 30 50  1  0
 30 51  1  0
 30 52  1  0
M  END
> <Name>
3,347

> <OBJECTID>
9223372676808245259

> <ActiveAidCount>
31

> <AtomChiralCount>
2

> <AtomChiralDefCount>
0

> <AtomChiralUndefCount>
2

> <BondChiralCount>
0

> <BondChiralDefCount>
0

> <BondChiralUndefCount>
0

> <CID>
3347

> <CanonicalSmiles>
CC(C)C(C1=CC=C(C=C1)Cl)C(=O)OC(C#N)C2=CC(=CC=C2)OC3=CC=CC=C3

> <Complexity>
586

> <CovalentUnitCount>
1

> <CreateDate>
2005/03/25 00:00

> <HeavyAtomCount>
30

> <HydrogenBondAcceptorCount>
4

> <HydrogenBondDonorCount>
0

> <IUPACName>
[cyano-(3-phenoxyphenyl)methyl] 2-(4-chlorophenyl)-3-methylbutanoate

> <InChI>
InChI=1S/C25H22ClNO3/c1-17(2)24(18-11-13-20(26)14-12-18)25(28)30-23(16-27)19-7-6-10-22(15-19)29-21-8-4-3-5-9-21/h3-15,17,23-24H,1-2H3

> <InChIKey>
NYPJDWWKZLNGGM-UHFFFAOYSA-N

> <IsomericSmiles>
CC(C)C(C1=CC=C(C=C1)Cl)C(=O)OC(C#N)C2=CC(=CC=C2)OC3=CC=CC=C3

> <IsotopeAtomCount>
0

> <MeSHHeading>
fenvalerate

> <MeSHTerm>
alpha-cyano-3-phenoxybenzyl alpha-isopropyl-4-chlorophenyl acetate
S-5602
pydrin, (R-(R*,R*))-isomer
fenvalarate
fenvalerate
pydrin, (R-(R*,S*))-isomer
Belmark
Sumi-alpha
WL 43775
pydrin, (S-(R*,R*))-isomer
esfenvalerate
Pydrin
Sumicidin
pydrin, (S-(R*,S*))-isomer
alpha-cyano-3-phenoxybenzyl 2-(4-chlorophenyl)-3- methylbutyrate

> <MolecularFormula>
C25H22ClNO3

> <MolecularWeight>
419.9

> <PharmAction>
Chemical Actions and Uses
Insecticides
Enzyme Inhibitors
Pesticides
Agrochemicals
Toxic Actions
Pharmacologic Actions
Molecular Mechanisms of Pharmacological Action
Specialty Uses of Chemicals

> <RotatableBondCount>
8

> <Smiles>
N#CC(OC(C(C(C)C)c1ccc(Cl)cc1)=O)c2cc(Oc3ccccc3)ccc2

> <SourceCategory>
Legacy Depositors
Chemical Vendors
Research and Development
Curation Efforts
Governmental Organizations
NIH Initiatives
Subscription Services
Journal Publishers

> <Synonym>
fenvalerate
51630-58-1
Pydrin
Phenvalerate
Sumicidin
Belmark
Aqmatrine
Phenoxin
Agrofen
Ectrin
Fenaxin
Fenkem
Fenkill
Fenoxin
Fenval
Tirade
Furitrothion
Insectral
Sanmarton
Sumibac
Sumifleece
Sumifly
Sumipower
Sumitick
Sumkidin
Tribute
Evercide 2362
Fenvalerate beta
Cyano(3-phenoxyphenyl)methyl 2-(4-chlorophenyl)-3-methylbutanoate
Gold crest tribute
Sumicidin 20E
Caswell No. 077A
Fenvalerate [BSI:ISO]
C25H22ClNO3
CCRIS 311
Asana
alpha-Cyano-3-phenoxybenzyl alpha-(4-chlorophenyl)isovalerate
WL 43775
HSDB 6640
EPA Shaughnessy Code: 109301
OMS-2000
EINECS 257-326-3
S-5602
BRN 2025982
SD 43775
AI3-29235
alpha-Cyano-3-phenoxybenzyl 2-(4-chlorophenyl)isovalerate
CHEBI:5014
NYPJDWWKZLNGGM-UHFFFAOYSA-N
S 5602
Fenvalerate A-beta
MFCD00055324
4-Chloro-alpha-(1-methylethyl)benzeneacetic acid cyano(3-phenoxyphenyl)methyl ester
alpha-Cyano-3-phenoxybenzyl-2-(4-chlorophenyl)-3-methylbutyrate
alpha-Cyano-3-phenoxybenzyl alpha-isopropyl-4-chlorophenylacetate
DSSTox_CID_621
S 5602A-beta
(+)-alpha-Cyano-3-phenoxybenzyl-(+)-alpha-(4-chlorophenyl)isovalerate
[cyano-(3-phenoxyphenyl)methyl] 2-(4-chlorophenyl)-3-methylbutanoate
(Cyano(3-phenoxyphenyl)methyl-4-chloro-alpha-(1-methylethyl)phenylacetate)
(RS)-alpha-Cyano-3-phenoxybenzyl (RS)-2-(4-chlorophenyl)-3-methylbutyrate
alpha-Cyano-(3-phenoxyphenyl)methyl-4-chloro-alpha-(1-methylethyl)benzeneacetate
Cyano(3-phenoxyphenyl)methyl 4-chloro-alpha-(1-methylethyl)benzeneacetate
Benzeneacetic acid, 4-chloro-.alpha.-(1-methylethyl)-, cyano(3-phenoxyphenyl)methyl ester
DSSTox_RID_75696
DSSTox_GSID_20621
Halmark
W-111022
Sumi-alfa
fenvalarate
Asana XL
alpha-Cyano-3-phenoxybenzyl-alpha-(4-chlorophenyl)isovalerate
Sumi-.alpha.
Cyano(3-phenoxybenzyl)methyl 2-(4-chlorophenyl)-3-methylbutyrate
Fenvalerate .alpha.
cyano[3-(phenyloxy)phenyl]methyl 2-(4-chlorophenyl)-3-methylbutanoate
(RS)-alpha-Cyano-3-phenoxybenzyl (RS)-2-(4-chloro-phenyl)-3-methylbutyrate
Sumicidin A .alpha.
Benzeneacetic acid, 4-chloro-alpha-(1-methylethyl)-, cyano(3-phenoxyphenyl)methyl ester
BRN 5857755
Fenvalerate A .alpha.
Benzeneacetic acid, 4-chloro-.alpha.-(1-methylethyl)-, (S)-cyano(3-phenoxyphenyl)methyl ester, (.alpha.S)-
Benzeneacetic acid, 4-chloro-.alpha.-(1-methylethyl)-, cyano (3-phenoxyphenyl)methyl ester,(S-(R*,R*))-
CAS-51630-58-1
Fenvalerate (pydrin)
S 5602 A .alpha.
S 5602B-alpha
67614-33-9
Fenvalerate [INN:BAN]
S 5602B-beta
fenvaierate
OMS 3023
[cyano-(3-phenoxyphenyl)methyl] 2-(4-chlorophenyl)-3-methyl-butanoate
pydrin, (R-(R*,S*))-isomer
Fenvalerate E.C.
66267-77-4
67614-32-8
Benzeneacetic acid, 4-chloro-alpha-(1-methylethyl)-, cyano(3-phenoxyphenyl)methyl ester, (R-(R*,S*))-
Acadrex (TN)
Fenvalerate (BAN)
(+-)-Fenvalerate
S 1844
Fenvalerate, >=97%
AC1L1FQ8
SCHEMBL26911
(S)-alpha-Cyano-3-phenoxybenzyl(S)-2-(4-chlorophenyl)isovalerate
Cyano(3-phenoxyphenyl)methyl 2-(4-chlorophenyl)-3-methylbutanoate #
BMK1-H10
CHEMBL492491
(S)-.alpha.-Cyano-3-phenoxybenzyl(S)-2-(4-chlorophenyl)-3-methylbutyrate
DTXSID3020621
NIOSH/CY1576360
CTK8E5624
Cyano (3-phenoxybenzyl)-2-(4-chlorophenyl)-3-methylbutyrate
alpha-cyano-3-phenoxybenzyl 2-(4-chlorophenyl)-3- methylbutyrate
alpha-cyano-3-phenoxybenzyl alpha-isopropyl-4-chlorophenyl acetate
Tox21_201838
Tox21_302957
GL6974
HSCI1_000043
IN1337
AKOS015904814
Fenvalerate 10 microg/mL in Isooctane
LS-7394
Fenvalerate 100 microg/mL in Isooctane
NCGC00163508-01
NCGC00163508-02
NCGC00163508-03
NCGC00256483-01
NCGC00259387-01
AC-22281
AN-38293
AN-38480
AN-41180
AS-49365
Benzeneacetic acid, 4-chloro-.alpha.-(1-methylethyl)-, (R)-cyano(3-phenoxyphenyl)methyl ester, (.alpha.S)-
Benzeneacetic acid, 4-chloro-alpha-(1-methylethyl)-, cyano(3-phenoxyphenyl)methyl ester, (R-(R*,R*))-
Benzeneacetic acid, 4-chloro-alpha-(1-methylethyl)-, cyano(3-phenoxyphenyl)methyl ester, (S-(R*,S*))-
CC-28411
Fenvalerate 10 microg/mL in Acetonitrile
H653
LS-28682
LS-28683
LS-28685
SC-18544
ACM1246815008
AX8021157
TR-018390
533-EP2274983A1
533-EP2275422A1
533-EP2280009A1
533-EP2292608A1
533-EP2305658A1
533-EP2308857A1
533-EP2308858A1
533-EP2311816A1
533-EP2311817A1
533-EP2314583A1
CY15763600
FT-0630648
C10988
D07952
Fenvalerate, PESTANAL(R), analytical standard
630F581
C-22054
Fenvalerate, certified reference material, TraceCERT(R)
a-Cyano-3-phenoxybenzyl 2-(4-chlorophenyl)-3-methylbutyrate
alpha-Cyano-3-phenoxybenzyl alpha-(4-chlorophenyl)-iso-valerate
alpha-cyano-m-phenoxybenzyl 2-(p-chlorophenyl)-3-methylbutyrate
alpha-cyano-3-phenoxy-benzyl 2-(p-chlorophenyl)-2-isopropyl-acetate
alpha-cyano-3-phenoxybenzyl 2-(4-chlorophenyl)-3-methylbutanoate
alpha-cyano-3-phenoxybenzyl 2-(4-chlorophenyl)-3-methylbutyrate
Cyano(3-phenoxyphenyl)methyl 4-chloro-a-(1-methylethyl)benzeneacetate, 9CI
(+-)-4-Chloro-alpha-(1-methylethyl)benzeneacetic acid cyano(3-phenoxyphenyl)methyl ester
[(S)-cyano-(3-phenoxyphenyl)methyl] (2R)-2-(4-chlorophenyl)-3-methylbutanoate
Cyano(3-phenoxyphenyl)methyl ester, 4-chloro-alpha-(1-methylethyl)benzeneacetic acid
Benzeneacetic acid, 4-chloro-alpha-(1-methylethyl)-, cyano(3-phenoxyphenyl)methyl ester, (+-)-
Benzeneacetic acid, 4-chloro-alpha-(1-methylethyl)-, cyano(3-phenoxyphenyl)methyl ester,(R-(R*,S*))-

> <TPSA>
59.3

> <TotalAidCount>
358

> <TotalFormalCharge>
0

> <XLogP>
6.2

> <database>
PubChem Compound

> <matchingCount>
176

> <primaryID>
3347

> <queryTranslation>
7628[CompoundID] OR 244[CompoundID] OR 25059[CompoundID] OR 7618[CompoundID] OR 7641[CompoundID] OR 5053[CompoundID] OR 637511[CompoundID] OR 7714[CompoundID] OR 7762[CompoundID] OR 25429[CompoundID]
OR 8842[CompoundID] OR 7794[CompoundID] OR 637566[CompoundID] OR 7843[CompoundID] OR 174[CompoundID] OR 7870[CompoundID] OR 86102[CompoundID] OR 7888[CompoundID] OR 7896[CompoundID] OR 1140[CompoundID
] OR 8042[CompoundID] OR 8058[CompoundID] OR 8078[CompoundID] OR 8087[CompoundID] OR 8117[CompoundID] OR 8133[CompoundID] OR 115224[CompoundID] OR 8175[CompoundID] OR 8194[CompoundID] OR 445639[Compou
ndID] OR 4944[CompoundID] OR 8294[CompoundID] OR 93541[CompoundID] OR 8360[CompoundID] OR 8363[CompoundID] OR 656612[CompoundID] OR 125098[CompoundID] OR 3352[CompoundID] OR 3303913[CompoundID] OR 648
05[CompoundID] OR 31200[CompoundID] OR 1712058[CompoundID] OR 31236[CompoundID] OR 31239[CompoundID] OR 31265[CompoundID] OR 31266[CompoundID] OR 31276[CompoundID] OR 6950273[CompoundID] OR 518659[Com
poundID] OR 14896[CompoundID] OR 14798[CompoundID] OR 14829[CompoundID] OR 14830[CompoundID] OR 8635[CompoundID] OR 23266[CompoundID] OR 4284[CompoundID] OR 8693[CompoundID] OR 22311[CompoundID] OR 87
59[CompoundID] OR 8785[CompoundID] OR 2723810[CompoundID] OR 8857[CompoundID] OR 3893[CompoundID] OR 9936739[CompoundID] OR 516892[CompoundID] OR 5430[CompoundID] OR 9017[CompoundID] OR 15433[Compound
ID] OR 107720[CompoundID] OR 9552081[CompoundID] OR 164825[CompoundID] OR 10275455[CompoundID] OR 16666[CompoundID] OR 9839306[CompoundID] OR 5282227[CompoundID] OR 23676745[CompoundID] OR 32881[Compo
undID] OR 91581[CompoundID] OR 39800[CompoundID] OR 33344[CompoundID] OR 15962220[CompoundID] OR 33528[CompoundID] OR 5365075[CompoundID] OR 62829[CompoundID] OR 162381[CompoundID] OR 517202[CompoundI
D] OR 6433353[CompoundID] OR 2730[CompoundID] OR 5372405[CompoundID] OR 36081[CompoundID] OR 3120[CompoundID] OR 3017[CompoundID] OR 2969[CompoundID] OR 18827[CompoundID] OR 19518[CompoundID] OR 19658
[CompoundID] OR 38283[CompoundID] OR 2758[CompoundID] OR 10112[CompoundID] OR 10340[CompoundID] OR 712[CompoundID] OR 5794[CompoundID] OR 3347[CompoundID] OR 104150[CompoundID] OR 2912[CompoundID] OR
2450[CompoundID] OR 40326[CompoundID] OR 40585[CompoundID] OR 517055[CompoundID] OR 10913[CompoundID] OR 108242[CompoundID] OR 62097[CompoundID] OR 41679[CompoundID] OR 54680676[CompoundID] OR 62118[C
ompoundID] OR 753[CompoundID] OR 1030[CompoundID] OR 23673837[CompoundID] OR 54678504[CompoundID] OR 11442[CompoundID] OR 11463[CompoundID] OR 22230[CompoundID] OR 440917[CompoundID] OR 6054[CompoundI
D] OR 43234[CompoundID] OR 22629[CompoundID] OR 3039[CompoundID] OR 2735067[CompoundID] OR 6144[CompoundID] OR 702[CompoundID] OR 284[CompoundID] OR 176[CompoundID] OR 91688[CompoundID] OR 22947[Compo
undID] OR 47445[CompoundID] OR 1711973[CompoundID] OR 243[CompoundID] OR 10342051[CompoundID] OR 5281875[CompoundID] OR 3776[CompoundID] OR 6224[CompoundID] OR 104926[CompoundID] OR 8755[CompoundID] O
R 338[CompoundID] OR 123622[CompoundID] OR 23954[CompoundID] OR 6334[CompoundID] OR 2537[CompoundID] OR 24261[CompoundID] OR 23665760[CompoundID] OR 83975[CompoundID] OR 784[CompoundID] OR 24437[Compo
undID] OR 5360315[CompoundID] OR 311[CompoundID] OR 6549[CompoundID] OR 107689[CompoundID] OR 17100[CompoundID] OR 24976875[CompoundID] OR 6654[CompoundID] OR 71245[CompoundID] OR 6442842[CompoundID]
OR 62334[CompoundID] OR 54698175[CompoundID] OR 6328154[CompoundID] OR 24762[CompoundID] OR 440950[CompoundID] OR 7017[CompoundID] OR 5281873[CompoundID] OR 323[CompoundID] OR 5281167[CompoundID] OR 7
175[CompoundID] OR 7292[CompoundID] OR 6335613[CompoundID] OR 7456[CompoundID] OR 7462[CompoundID]

> <resultIndex>
153

> <resultRange>
1-176

> <textQuery>
7628,244,25059,7618,7641,5053,637511,7714,7762,25429,8842,7794,637566,7843,174,7870,86102,7888,7896,1140,8042,8058,8078,8087,8117,8133,115224,8175,8194,445639,4944,8294,93541,8360,8363,656612,125098,3
352,3303913,64805,31200,1712058,31236,31239,31265,31266,31276,6950273,518659,14896,14798,14829,14830,8635,23266,4284,8693,22311,8759,8785,2723810,8857,3893,9936739,516892,5430,9017,15433,107720,955208
1,164825,10275455,16666,9839306,5282227,23676745,32881,91581,39800,33344,15962220,33528,5365075,62829,162381,517202,6433353,2730,5372405,36081,3120,3017,2969,18827,19518,19658,38283,2758,10112,10340,7
12,5794,3347,104150,2912,2450,40326,40585,517055,10913,108242,62097,41679,54680676,62118,753,1030,23673837,54678504,11442,11463,22230,440917,6054,43234,22629,3039,2735067,6144,702,284,176,91688,22947,
47445,1711973,243,10342051,5281875,3776,6224,104926,8755,338,123622,23954,6334,2537,24261,23665760,83975,784,24437,5360315,311,6549,107689,17100,24976875,6654,71245,6442842,62334,54698175,6328154,2476
2,440950,7017,5281873,323,5281167,7175,7292,6335613,7456,7462

$$$$
3,120
  SciTegic10191915303D

 24 24  0  0  0  0            999 V2000
    0.0410   -3.1820    0.1020 C   0  0
   -0.9040   -2.1720    0.6000 N   0  0
   -2.1030   -2.6150    1.3240 C   0  0
   -0.6480   -0.8480    0.3810 C   0  0
    0.4160   -0.5270   -0.2560 N   0  0
    0.7030    0.7910   -0.4920 C   0  0
   -0.2750    1.6370   -1.0430 C   0  0
    0.0180    2.9880   -1.2830 C   0  0
    1.2890    3.5080   -0.9760 C   0  0
    2.2790    2.6580   -0.4240 C   0  0
    1.9770    1.3030   -0.1840 C   0  0
    3.8580    3.2170   -0.0250 Cl  0  0
    1.5800    5.1780   -1.2970 Cl  0  0
   -1.4800    0.0940    0.8170 O   0  0
    1.0610   -3.0780    0.4750 H   0  0
    0.0780   -3.1310   -0.9860 H   0  0
   -0.3140   -4.1740    0.3770 H   0  0
   -2.9900   -2.3010    0.7740 H   0  0
   -2.0490   -3.6930    1.4830 H   0  0
   -2.1310   -2.1350    2.3030 H   0  0
   -1.2600    1.2620   -1.2870 H   0  0
   -0.7500    3.6190   -1.7070 H   0  0
    2.7310    0.6520    0.2380 H   0  0
   -1.1250    0.9490    1.0880 H   0  0
  1  2  1  0
  2  3  1  0
  2  4  1  0
  4  5  2  0
  4 14  1  0
  5  6  1  0
  6  7  2  0
  6 11  1  0
  7  8  1  0
  8  9  2  0
  9 10  1  0
  9 13  1  0
 10 11  2  0
 10 12  1  0
  1 15  1  0
  1 16  1  0
  1 17  1  0
  3 18  1  0
  3 19  1  0
  3 20  1  0
  7 21  1  0
  8 22  1  0
 11 23  1  0
 14 24  1  0
M  END
> <Name>
3,120

> <OBJECTID>
9223372681103212555

> <ActiveAidCount>
52

> <AtomChiralCount>
0

> <AtomChiralDefCount>
0

> <AtomChiralUndefCount>
0

> <BondChiralCount>
0

> <BondChiralDefCount>
0

> <BondChiralUndefCount>
0

> <CID>
3120

> <CanonicalSmiles>
CN(C)C(=O)NC1=CC(=C(C=C1)Cl)Cl

> <Complexity>
211

> <CovalentUnitCount>
1

> <CreateDate>
2005/03/25 00:00

> <HeavyAtomCount>
14

> <HydrogenBondAcceptorCount>
1

> <HydrogenBondDonorCount>
1

> <IUPACName>
3-(3,4-dichlorophenyl)-1,1-dimethylurea

> <InChI>
InChI=1S/C9H10Cl2N2O/c1-13(2)9(14)12-6-3-4-7(10)8(11)5-6/h3-5H,1-2H3,(H,12,14)

> <InChIKey>
XMTQQYYKAHVGBJ-UHFFFAOYSA-N

> <IsomericSmiles>
CN(C)C(=O)NC1=CC(=C(C=C1)Cl)Cl

> <IsotopeAtomCount>
0

> <MeSHHeading>
Diuron

> <MeSHTerm>
DCMU
3-(3,4-Dichlorophenyl)-1,1-dimethylurea
Diuron

> <MolecularFormula>
C9H10Cl2N2O

> <MolecularWeight>
233.09

> <PharmAction>
Pesticides
Herbicides
Toxic Actions
Specialty Uses of Chemicals
Agrochemicals
Chemical Actions and Uses

> <RotatableBondCount>
1

> <Smiles>
CN(C(O)=Nc1cc(Cl)c(Cl)cc1)C

> <SourceCategory>
Chemical Vendors
Legacy Depositors
Research and Development
Curation Efforts
Governmental Organizations
NIH Initiatives
Subscription Services
Journal Publishers

> <Synonym>
diuron
3-(3,4-Dichlorophenyl)-1,1-dimethylurea
330-54-1
DCMU
Duran
Dynex
Dichlorfenidim
Herbatox
Vonduron
Dailon
Karmex
Marmer
Karmex DW
Di-on
Cekiuron
Crisuron
Lucenit
Unidron
Diuron Nortox
Karmex D
Karmex Diuron Herbicide
1-(3,4-Dichlorophenyl)-3,3-dimethylurea
Preventol A 6
Urox D
Diuron 4L
Direx 4L
DP Hardener 95
Telvar Diuron Weed Killer
Urea, N'-(3,4-dichlorophenyl)-N,N-dimethyl-
1,1-Dimethyl-3-(3,4-dichlorophenyl)urea
Anduron
Ansaron
Dirurol
Durashield
Herburon
Seduron
Bioron
Drexel
Farmco diuron
Sup'r flo
N'-(3,4-Dichlorophenyl)-N,N-dimethylurea
DCMU 99
Diuron 900
Caswell No. 410
HW 920
Ditox-800
N-(3,4-Dichlorophenyl)-N',N'-dimethylurea
Karamex
Aguron
Diater
Dichlorfenidim [Russian]
UNII-9I3SDS92WY
USAF P-7
Diuron [ANSI:BSI:ISO]
N,N,-Dimethyl-N'-(3,4-dichlorophenyl)urea
USAF XR-42
3-(3,4-Dichlor-phenyl)-1,1-dimethyl-harnstoff
CCRIS 1012
HSDB 382
Direx 80W
1-(3,4-Dichlorophenyl)-3,3-dimethyluree
3-(3,4-dichlorophenyl)-1,1-dimethyl-urea
NSC 8950
EINECS 206-354-4
AF 101
MFCD00018136
Urea, 3-(3,4-dichlorophenyl)-1,1-dimethyl-
EPA Pesticide Chemical Code 035505
BRN 2215168
9I3SDS92WY
AI3-61438
3-(3,4-Dicloro-fenyl)-1,1-dimetil-urea
3-(3,4-Dichloor-fenyl)-1,1-dimethylureum
CHEBI:116509
XMTQQYYKAHVGBJ-UHFFFAOYSA-N
1-(3,4-Dichlorophenyl)-3,3-dimethyluree [French]
3-(3,4-Dichloor-fenyl)-1,1-dimethylureum [Dutch]
3-(3,4-Dicloro-fenyl)-1,1-dimetil-urea [Italian]
3-(3,4-Dichlor-phenyl)-1,1-dimethyl-harnstoff [German]
NCGC00094525-01
N-(3,4-Dichlorophenyl)-N,N-Dimethylurea
DSSTox_CID_446
3-(3,4-Dichloro-phenyl)-1,1-dimethyl-urea
DSSTox_RID_75595
DSSTox_GSID_20446
CAS-330-54-1
Xarmex
Diuron solution
Xarmex, Krovar
M Velpar
Karmex DL
D rexel diuron 4L
Karmex 80W
Spectrum_001823
1-(3,3-dimethylurea
3-(3,1-dimethylurea
ACMC-1CQJF
SpecPlus_000424
N'-(3,N-dimethylurea
N-(3,N'-dimethylurea
1,4-dichlorophenyl)urea
3-(3,1-dimethylureum
n,n-dimethyl-n'-(3,4-dichlorophenyl)urea
3-(3,1-dimetil-urea
Spectrum2_001229
Spectrum3_000822
Spectrum4_000662
Spectrum5_001956
Diuron, >=98%
EC 206-354-4
AC1L1F7Q
AC1Q3W1I
AC1Q3W1S
Cambridge id 5104305
SCHEMBL7279
3-(3,1-dimethyl-harnstoff
BSPBio_002343
KBioGR_001063
KBioSS_002328
SPECTRUM330030
MLS002207110
DivK1c_006520
SPBio_001078
CHEMBL278489
URE002
DTXSID0020446
CTK7G2120
KBio1_001464
KBio2_002325
KBio2_004893
KBio2_007461
KBio3_001843
ZINC57287
NSC8950
WLN: GR BG DMVN1 & 1
NSC-8950
Tox21_111292
Tox21_201438
Tox21_301016
ANW-27531
BBL003847
CCG-39151
Diuron 10 microg/mL in Acetonitrile
STK077954
AKOS001303464
Diuron 100 microg/mL in Acetonitrile
Tox21_111292_1
Urea,4-dichlorophenyl)-N,N-dimethyl-
LS-7325
MCULE-1921281405
RTR-013860
Urea,4-dichlorophenyl)-1,1-dimethyl-
KS-0000105P
NCGC00094525-02
NCGC00094525-03
NCGC00094525-04
NCGC00094525-05
NCGC00094525-06
NCGC00094525-07
NCGC00094525-08
NCGC00094525-09
NCGC00254918-01
NCGC00258989-01
AN-44343
AS-15493
P597
SMR000777941
ZB002067
Diuron, PESTANAL(R), analytical standard
3-(3,4-Dichlorophenol)-1,1-dimethylurea
Diuron solution 100 ng/muL in acetonitrile
TR-013860
D1328
FT-0603378
N,N-dimethyl-N'-(3,4-dichlorophenyl)-urea
ST50409103
T7706
N-(3,4-dichlorophenyl)-N',N'-dimethyl urea
C18428
33329-EP2274983A1
33329-EP2305655A2
33329-EP2305662A1
33329-EP2311815A1
33329-EP2371823A1
N-(3,4-dichlorophenyl)(dimethylamino)carboxamide
A821585
SR-01000195223
Diuron, certified reference material, TraceCERT(R)
I01-4399
J-018992
SR-01000195223-1
BRD-K75330923-001-02-6
Diuron solution, 100 mug/mL in acetonitrile, PESTANAL(R), analytical standard
W9M

> <TPSA>
32.3

> <TotalAidCount>
657

> <TotalFormalCharge>
0

> <XLogP>
2.7

> <database>
PubChem Compound

> <matchingCount>
176

> <primaryID>
3120

> <queryTranslation>
7628[CompoundID] OR 244[CompoundID] OR 25059[CompoundID] OR 7618[CompoundID] OR 7641[CompoundID] OR 5053[CompoundID] OR 637511[CompoundID] OR 7714[CompoundID] OR 7762[CompoundID] OR 25429[CompoundID]
OR 8842[CompoundID] OR 7794[CompoundID] OR 637566[CompoundID] OR 7843[CompoundID] OR 174[CompoundID] OR 7870[CompoundID] OR 86102[CompoundID] OR 7888[CompoundID] OR 7896[CompoundID] OR 1140[CompoundID
] OR 8042[CompoundID] OR 8058[CompoundID] OR 8078[CompoundID] OR 8087[CompoundID] OR 8117[CompoundID] OR 8133[CompoundID] OR 115224[CompoundID] OR 8175[CompoundID] OR 8194[CompoundID] OR 445639[Compou
ndID] OR 4944[CompoundID] OR 8294[CompoundID] OR 93541[CompoundID] OR 8360[CompoundID] OR 8363[CompoundID] OR 656612[CompoundID] OR 125098[CompoundID] OR 3352[CompoundID] OR 3303913[CompoundID] OR 648
05[CompoundID] OR 31200[CompoundID] OR 1712058[CompoundID] OR 31236[CompoundID] OR 31239[CompoundID] OR 31265[CompoundID] OR 31266[CompoundID] OR 31276[CompoundID] OR 6950273[CompoundID] OR 518659[Com
poundID] OR 14896[CompoundID] OR 14798[CompoundID] OR 14829[CompoundID] OR 14830[CompoundID] OR 8635[CompoundID] OR 23266[CompoundID] OR 4284[CompoundID] OR 8693[CompoundID] OR 22311[CompoundID] OR 87
59[CompoundID] OR 8785[CompoundID] OR 2723810[CompoundID] OR 8857[CompoundID] OR 3893[CompoundID] OR 9936739[CompoundID] OR 516892[CompoundID] OR 5430[CompoundID] OR 9017[CompoundID] OR 15433[Compound
ID] OR 107720[CompoundID] OR 9552081[CompoundID] OR 164825[CompoundID] OR 10275455[CompoundID] OR 16666[CompoundID] OR 9839306[CompoundID] OR 5282227[CompoundID] OR 23676745[CompoundID] OR 32881[Compo
undID] OR 91581[CompoundID] OR 39800[CompoundID] OR 33344[CompoundID] OR 15962220[CompoundID] OR 33528[CompoundID] OR 5365075[CompoundID] OR 62829[CompoundID] OR 162381[CompoundID] OR 517202[CompoundI
D] OR 6433353[CompoundID] OR 2730[CompoundID] OR 5372405[CompoundID] OR 36081[CompoundID] OR 3120[CompoundID] OR 3017[CompoundID] OR 2969[CompoundID] OR 18827[CompoundID] OR 19518[CompoundID] OR 19658
[CompoundID] OR 38283[CompoundID] OR 2758[CompoundID] OR 10112[CompoundID] OR 10340[CompoundID] OR 712[CompoundID] OR 5794[CompoundID] OR 3347[CompoundID] OR 104150[CompoundID] OR 2912[CompoundID] OR
2450[CompoundID] OR 40326[CompoundID] OR 40585[CompoundID] OR 517055[CompoundID] OR 10913[CompoundID] OR 108242[CompoundID] OR 62097[CompoundID] OR 41679[CompoundID] OR 54680676[CompoundID] OR 62118[C
ompoundID] OR 753[CompoundID] OR 1030[CompoundID] OR 23673837[CompoundID] OR 54678504[CompoundID] OR 11442[CompoundID] OR 11463[CompoundID] OR 22230[CompoundID] OR 440917[CompoundID] OR 6054[CompoundI
D] OR 43234[CompoundID] OR 22629[CompoundID] OR 3039[CompoundID] OR 2735067[CompoundID] OR 6144[CompoundID] OR 702[CompoundID] OR 284[CompoundID] OR 176[CompoundID] OR 91688[CompoundID] OR 22947[Compo
undID] OR 47445[CompoundID] OR 1711973[CompoundID] OR 243[CompoundID] OR 10342051[CompoundID] OR 5281875[CompoundID] OR 3776[CompoundID] OR 6224[CompoundID] OR 104926[CompoundID] OR 8755[CompoundID] O
R 338[CompoundID] OR 123622[CompoundID] OR 23954[CompoundID] OR 6334[CompoundID] OR 2537[CompoundID] OR 24261[CompoundID] OR 23665760[CompoundID] OR 83975[CompoundID] OR 784[CompoundID] OR 24437[Compo
undID] OR 5360315[CompoundID] OR 311[CompoundID] OR 6549[CompoundID] OR 107689[CompoundID] OR 17100[CompoundID] OR 24976875[CompoundID] OR 6654[CompoundID] OR 71245[CompoundID] OR 6442842[CompoundID]
OR 62334[CompoundID] OR 54698175[CompoundID] OR 6328154[CompoundID] OR 24762[CompoundID] OR 440950[CompoundID] OR 7017[CompoundID] OR 5281873[CompoundID] OR 323[CompoundID] OR 5281167[CompoundID] OR 7
175[CompoundID] OR 7292[CompoundID] OR 6335613[CompoundID] OR 7456[CompoundID] OR 7462[CompoundID]

> <resultIndex>
154

> <resultRange>
1-176

> <textQuery>
7628,244,25059,7618,7641,5053,637511,7714,7762,25429,8842,7794,637566,7843,174,7870,86102,7888,7896,1140,8042,8058,8078,8087,8117,8133,115224,8175,8194,445639,4944,8294,93541,8360,8363,656612,125098,3
352,3303913,64805,31200,1712058,31236,31239,31265,31266,31276,6950273,518659,14896,14798,14829,14830,8635,23266,4284,8693,22311,8759,8785,2723810,8857,3893,9936739,516892,5430,9017,15433,107720,955208
1,164825,10275455,16666,9839306,5282227,23676745,32881,91581,39800,33344,15962220,33528,5365075,62829,162381,517202,6433353,2730,5372405,36081,3120,3017,2969,18827,19518,19658,38283,2758,10112,10340,7
12,5794,3347,104150,2912,2450,40326,40585,517055,10913,108242,62097,41679,54680676,62118,753,1030,23673837,54678504,11442,11463,22230,440917,6054,43234,22629,3039,2735067,6144,702,284,176,91688,22947,
47445,1711973,243,10342051,5281875,3776,6224,104926,8755,338,123622,23954,6334,2537,24261,23665760,83975,784,24437,5360315,311,6549,107689,17100,24976875,6654,71245,6442842,62334,54698175,6328154,2476
2,440950,7017,5281873,323,5281167,7175,7292,6335613,7456,7462

$$$$
3,039
  SciTegic10191915303D

 18 17  0  0  0  0            999 V2000
    0.0980   -0.4730    1.9260 C   0  0
   -0.3480   -1.0820    0.7230 O   0  0
    0.1540   -0.3960   -0.5800 P   0  0
   -0.3570   -1.1190   -1.7400 O   0  0
    1.7090   -0.4060   -0.6050 O   0  0
    2.2950   -1.6990   -0.6130 C   0  0
   -0.3500    1.0740   -0.6190 O   0  0
   -1.6640    1.2830   -0.6270 C   0  0
   -2.1520    2.5350   -0.6620 C   0  0
   -3.8650    2.7740   -0.6720 Cl  0  0
   -1.0880    3.8990   -0.6950 Cl  0  0
   -0.2360   -0.9300    2.8580 H   0  0
   -0.2360    0.5650    1.9260 H   0  0
    1.1880   -0.4730    1.9260 H   0  0
    3.3770   -1.5820   -0.6870 H   0  0
    1.9280   -2.2440    0.2560 H   0  0
    1.9530   -2.2250   -1.5040 H   0  0
   -2.4040    0.4980   -0.6090 H   0  0
  1  2  1  0
  2  3  1  0
  3  4  2  0
  3  5  1  0
  3  7  1  0
  5  6  1  0
  7  8  1  0
  8  9  2  0
  9 10  1  0
  9 11  1  0
  1 12  1  0
  1 13  1  0
  1 14  1  0
  6 15  1  0
  6 16  1  0
  6 17  1  0
  8 18  1  0
M  END
> <Name>
3,039

> <OBJECTID>
9223372685398179851

> <ActiveAidCount>
42

> <AtomChiralCount>
0

> <AtomChiralDefCount>
0

> <AtomChiralUndefCount>
0

> <BondChiralCount>
0

> <BondChiralDefCount>
0

> <BondChiralUndefCount>
0

> <CID>
3039

> <CanonicalSmiles>
COP(=O)(OC)OC=C(Cl)Cl

> <Complexity>
181

> <CovalentUnitCount>
1

> <CreateDate>
2005/03/25 00:00

> <HeavyAtomCount>
11

> <HydrogenBondAcceptorCount>
4

> <HydrogenBondDonorCount>
0

> <IUPACName>
2,2-dichloroethenyl dimethyl phosphate

> <InChI>
InChI=1S/C4H7Cl2O4P/c1-8-11(7,9-2)10-3-4(5)6/h3H,1-2H3

> <InChIKey>
OEBRKCOSUFCWJD-UHFFFAOYSA-N

> <IsomericSmiles>
COP(=O)(OC)OC=C(Cl)Cl

> <IsotopeAtomCount>
0

> <MeSHHeading>
Dichlorvos

> <MeSHTerm>
Novotox
Phosphoric acid 2,2-dichloroethenyl dimethyl ester
Dichlorophos
DDVP
Divipan
Phosphoric acid 2,2 dichloroethenyl dimethyl ester
Dichlofos
Dimethyl Dichlorovinyl Phosphate
Dichlorvos

> <MolecularFormula>
C4H7Cl2O4P

> <MolecularWeight>
220.97

> <PharmAction>
Anthelmintics
Specialty Uses of Chemicals
Cholinergic Agents
Neurotransmitter Agents
Toxic Actions
Physiological Effects of Drugs
Therapeutic Uses
Agrochemicals
Anti-Infective Agents
Pesticides
Cholinesterase Inhibitors
Molecular Mechanisms of Pharmacological Action
Pharmacologic Actions
Antiparasitic Agents
Chemical Actions and Uses
Insecticides
Enzyme Inhibitors

> <RotatableBondCount>
4

> <Smiles>
COP(O\C=C(/Cl)\Cl)(OC)=O

> <SourceCategory>
Legacy Depositors
Chemical Vendors
Curation Efforts
Governmental Organizations
Research and Development
NIH Initiatives
Subscription Services
Journal Publishers

> <Synonym>
dichlorvos
62-73-7
DDVP
Dichlorophos
Divipan
Vapona
Chlorvinphos
Brevinyl
Canogard
Dichlorphos
Equigard
Krecalvin
Lindanmafu
2,2-Dichloroethenyl dimethyl phosphate
Bibesol
Equigel
Fecama
Herkal
Herkol
Nerkol
Phosvit
Unifos
Nogos
Nuvan
2,2-Dichlorovinyl dimethyl phosphate
Dichlorman
Dichlorovos
Estrosel
Szklarniak
Vaponite
Vinylofos
Vinylophos
Winylophos
Atgard
Dedevap
Fekama
Marvex
Mopari
Novotox
Tenac
Task
Atgard C
Atgard V
Nogos G
Vapona Insecticide
Dichloorvo
Astrobot
Cekusan
Dichlofos
Panaplate
Tetravos
Apavap
Benfos
Cypona
DDVP (insecticide)
Insectigas D
Nogos 50
Dimethyl 2,2-dichlorovinyl phosphate
Unifos (pesticide)
Derribante
Dichlorfos
Diclorvos
Equiguard
Estrosol
Nefrafos
Deriban
Devikol
TAP 9VP
Fly fighter
Mafu strip
No-pest strip
Fly-die
No-pest
Vapora II
Dimethyldichlorovinyl phosphate
Phosphoric acid, 2,2-dichloroethenyl dimethyl ester
Nuvan 7
O,O-Dimethyl dichlorovinyl phosphate
OMS 14
XLP 30
Dichlorovas
Denkavepon
Duravos
Equigand
Uniphos
Verdican
Verdipor
Verdisol
Algard
Dimethyl 2,2-dichloroethenyl phosphate
Unifos 50 EC
NCI-C00113
Nogos 50 EC
Nuvan 100EC
Task tabs
Des (phosphate)
BAY-19149
Dimethyl dichlorovinyl phosphate
Bayer 19149
Brevinyl E50
SD-1750
Dichloorvo [Dutch]
Brevinyl E-50
Dichlorfos [Polish]
DDVF
Phosphoric acid, 2,2-dichlorovinyl dimethyl ester
Caswell No. 328
Delevap
Derriban
Mafu
Nuva
SD 1750
Diclorvos [INN-Spanish]
Dichlorvosum [INN-Latin]
C4H7Cl2O4P
NSC 6738
NSC-6738
Ethenol, 2,2-dichloro-, dimethyl phosphate
(2,2-Dichloro-vinil)dimetil-fosfato
CCRIS 230
Brevinyl E 50
Dichlorvos [USAN:INN:BAN]
UNII-7U370BPS14
(2,2-Dichlor-vinyl)-dimethyl-phosphat
Atgard (TN)
Phosphate de dimethyle et de 2,2-dichlorovinyle
UDVF
HSDB 319
Phosphoric acid 2,2-dichloroethenyl dimethyl ester
Vinyl alcohol, 2,2-dichloro-, dimethyl phosphate
BAY-b 4986
O,O-Dimethyl 2,2-dichlorovinyl phosphate
Nuvan 100 EC
Dichlorvos [BSI:ISO]
EINECS 200-547-7
Dimethyl-2,2-dichlorovinyl phosphate
ENT 20738
ENT-20738
Phosphoric acid 2,2-dichlorovinyl dimethyl ester
Phosphate, 2-2-dichlorovinyl dimethyl
EPA Pesticide Chemical Code 084001
2,2-Dichloroethenyl phosphoric acid dimethyl ester
(2,2-Dichloor-vinyl)-dimethyl-fosfaat
BRN 1709141
AI3-20738
CHEMBL167911
O,O-Dimethyl O-2,2-dichlorovinyl phosphate
CHEBI:34690
Dichloroethenyl dimethyl phosphate
O,O-Dimethyl-O-(2,2-dichlor-vinyl)-phosphat
NSC6738
(2,2-Dichloor-vinyl)-dimethyl-fosfaat [Dutch]
(2,2-Dichloro-vinil)dimetil-fosfato [Italian]
(2,2-Dichlor-vinyl)-dimethyl-phosphat [German]
7U370BPS14
O,O-Dwumetylo-O-dwuchlorowinylofosforan [Polish]
2,2-Dimethyldichlorovinyl phosphate
O-(2,2-Dichlorvinyl)-O,O-dimethylphosphat [German]
2,2-dichloroethenol dimethyl phosphate
O,O-Dimethyl-O-(2,2-dichlor-vinyl)-phosphat [German]
OKO
Phosphate de dimethyle et de 2,2-dichlorovinyle [French]
NCGC00090997-02
2,2-Dichlorovinyl-O,O-dimethyl phosphate
DSSTox_CID_449
2,2-dichlorovinyl alcohol dimethyl phosphate
O-(2,2-Dichlorvinyl)-O,O-dimethylphosphate
2,2-dichlorovinyl dimethyl phosphoric acid ester
DSSTox_RID_75598
DSSTox_GSID_20449
Dichlorvosum
CAS-62-73-7
Dichlorvos (DDVP)
(2,2-Dichloor-vinyl)-dimethyl-fosfaat (Dutch)
Dichlorovinphos
Aquaguard
Nuvos
insectigas d
De devap
Prima U
Dichlorvos; DDVP
Dichlorvos (Vapona)
Dichlorfos(POLISH)
O,O-Dwumetylo-O-dwuchlorowinylofosforan
Spectrum_001779
Dimethyl O,2-phosphate
SpecPlus_000360
Dichlorvos (USAN/INN)
o-(2,2-Dichlorvinyl)-O,O-dimethylphosphat
o-(2,O-dimethylphosphat
Spectrum2_001227
Spectrum3_000810
Spectrum4_000650
Spectrum5_001930
AC1L1F1B
0,2-dichlorovinyl phosphate
SCHEMBL25067
BSPBio_002279
KBioGR_000999
KBioSS_002260
O,2-dichlor-vinyl)-phosphat
MLS002222471
ARONIS23875
BIDD:ER0583
DivK1c_006456
SPBio_001074
WLN: GYGU1OPO&O1&O1
DTXSID5020449
CTK2F3140
KBio1_001400
KBio2_002259
KBio2_004827
KBio2_007395
KBio3_001779
OEBRKCOSUFCWJD-UHFFFAOYSA-
OEBRKCOSUFCWJD-UHFFFAOYSA-N
HMS2091C21
dimethyl 2,2-dichlorovinylphosphate
ZINC1853865
ZX-AS004377
Tox21_111052
Tox21_201617
Tox21_300840
BDBM50286926
CCG-39147
LS-271
MFCD00036123
P5D635
SBB060965
O,O-di methyl dichlorovinyl phosphate
(2, 2-Dichloro-vinil)dimetil-fosfato
(2,2-Dichlorovinyl)-dimethyl-fosfate
AKOS005111045
Tox21_111052_1
FCH1321886
MCULE-3173230917
Ethenol,2-dichloro-, dimethyl phosphate
(2, 2-Dichlor-vinyl)-dimethyl-phosphat
NCGC00090997-01
NCGC00090997-03
NCGC00090997-04
NCGC00090997-05
NCGC00090997-06
NCGC00090997-07
NCGC00090997-08
NCGC00090997-09
NCGC00090997-11
NCGC00254743-01
NCGC00259166-01
AN-23728
CC-26554
CJ-30602
Dimethyl O,O-dichlorovinyl-2,2-phosphate
P598
SMR000777927
SBI-0052506.P003
2,2-Dichlorovinyl dimethyl phosphate, 8CI
2,2-Dichlorovinyl-O,O- dimethyl phosphate
DB-054265
Dimethyl O, O-dichlorovinyl-2,2-phosphate
TR-021579
2,2-bis(chloranyl)ethenyl dimethyl phosphate
FT-0603079
o-(2, 2-Dichlorvinyl)-O,O-dimethylphosphat
O-O-Dimethyl-O(2,2-dichlorovinyl)phosphate
ST51047050
Dichlorvos, PESTANAL(R), analytical standard
Ethenol, 2, 2-dichloro-, dimethyl phosphate
Phosphoric acid,2-dichlorovinyl dimethyl ester
Vinyl alcohol,2-dichloro-, dimethyl phosphate
0, 0-Dimethyl 0-2,2-dichlorovinyl phosphate
C14430
D03791
26857-EP2274983A1
26857-EP2275422A1
26857-EP2280009A1
26857-EP2292608A1
26857-EP2305662A1
26857-EP2308857A1
26857-EP2308858A1
26857-EP2311816A1
26857-EP2311817A1
26857-EP2314583A1
48039-EP2275422A1
48039-EP2311810A1
AB00053012_02
O,O-Dimethyl-O-(2, 2-dichlor-vinyl)-phosphat
Phosphoric acid,2-dichloroethenyl dimethyl ester
A833962
C-12231
SR-05000001548
DICHLO RVOS [DIMETHYL DICHLORVINYL PHOSPHATE]
DICHLORVOS [DIMETHYL DICHLORVINYL PHOSPHATE]
I14-2663
O,O-DIMETHYL-O(2,2-DICHLOROVINYL)-PHOSPHATE
Pho sphoric acid 2,2-dichloroethenyl dimethyl ester
SR-05000001548-1
O-(2,2-Dichloroethenyl) O,O-dimethyl phosphate, 9CI
Dichlorvos, United States Pharmacopeia (USP) Reference Standard
InChI=1/C4H7Cl2O4P/c1-8-11(7,9-2)10-3-4(5)6/h3H,1-2H3

> <TPSA>
44.8

> <TotalAidCount>
707

> <TotalFormalCharge>
0

> <XLogP>
1.4

> <database>
PubChem Compound

> <matchingCount>
176

> <primaryID>
3039

> <queryTranslation>
7628[CompoundID] OR 244[CompoundID] OR 25059[CompoundID] OR 7618[CompoundID] OR 7641[CompoundID] OR 5053[CompoundID] OR 637511[CompoundID] OR 7714[CompoundID] OR 7762[CompoundID] OR 25429[CompoundID]
OR 8842[CompoundID] OR 7794[CompoundID] OR 637566[CompoundID] OR 7843[CompoundID] OR 174[CompoundID] OR 7870[CompoundID] OR 86102[CompoundID] OR 7888[CompoundID] OR 7896[CompoundID] OR 1140[CompoundID
] OR 8042[CompoundID] OR 8058[CompoundID] OR 8078[CompoundID] OR 8087[CompoundID] OR 8117[CompoundID] OR 8133[CompoundID] OR 115224[CompoundID] OR 8175[CompoundID] OR 8194[CompoundID] OR 445639[Compou
ndID] OR 4944[CompoundID] OR 8294[CompoundID] OR 93541[CompoundID] OR 8360[CompoundID] OR 8363[CompoundID] OR 656612[CompoundID] OR 125098[CompoundID] OR 3352[CompoundID] OR 3303913[CompoundID] OR 648
05[CompoundID] OR 31200[CompoundID] OR 1712058[CompoundID] OR 31236[CompoundID] OR 31239[CompoundID] OR 31265[CompoundID] OR 31266[CompoundID] OR 31276[CompoundID] OR 6950273[CompoundID] OR 518659[Com
poundID] OR 14896[CompoundID] OR 14798[CompoundID] OR 14829[CompoundID] OR 14830[CompoundID] OR 8635[CompoundID] OR 23266[CompoundID] OR 4284[CompoundID] OR 8693[CompoundID] OR 22311[CompoundID] OR 87
59[CompoundID] OR 8785[CompoundID] OR 2723810[CompoundID] OR 8857[CompoundID] OR 3893[CompoundID] OR 9936739[CompoundID] OR 516892[CompoundID] OR 5430[CompoundID] OR 9017[CompoundID] OR 15433[Compound
ID] OR 107720[CompoundID] OR 9552081[CompoundID] OR 164825[CompoundID] OR 10275455[CompoundID] OR 16666[CompoundID] OR 9839306[CompoundID] OR 5282227[CompoundID] OR 23676745[CompoundID] OR 32881[Compo
undID] OR 91581[CompoundID] OR 39800[CompoundID] OR 33344[CompoundID] OR 15962220[CompoundID] OR 33528[CompoundID] OR 5365075[CompoundID] OR 62829[CompoundID] OR 162381[CompoundID] OR 517202[CompoundI
D] OR 6433353[CompoundID] OR 2730[CompoundID] OR 5372405[CompoundID] OR 36081[CompoundID] OR 3120[CompoundID] OR 3017[CompoundID] OR 2969[CompoundID] OR 18827[CompoundID] OR 19518[CompoundID] OR 19658
[CompoundID] OR 38283[CompoundID] OR 2758[CompoundID] OR 10112[CompoundID] OR 10340[CompoundID] OR 712[CompoundID] OR 5794[CompoundID] OR 3347[CompoundID] OR 104150[CompoundID] OR 2912[CompoundID] OR
2450[CompoundID] OR 40326[CompoundID] OR 40585[CompoundID] OR 517055[CompoundID] OR 10913[CompoundID] OR 108242[CompoundID] OR 62097[CompoundID] OR 41679[CompoundID] OR 54680676[CompoundID] OR 62118[C
ompoundID] OR 753[CompoundID] OR 1030[CompoundID] OR 23673837[CompoundID] OR 54678504[CompoundID] OR 11442[CompoundID] OR 11463[CompoundID] OR 22230[CompoundID] OR 440917[CompoundID] OR 6054[CompoundI
D] OR 43234[CompoundID] OR 22629[CompoundID] OR 3039[CompoundID] OR 2735067[CompoundID] OR 6144[CompoundID] OR 702[CompoundID] OR 284[CompoundID] OR 176[CompoundID] OR 91688[CompoundID] OR 22947[Compo
undID] OR 47445[CompoundID] OR 1711973[CompoundID] OR 243[CompoundID] OR 10342051[CompoundID] OR 5281875[CompoundID] OR 3776[CompoundID] OR 6224[CompoundID] OR 104926[CompoundID] OR 8755[CompoundID] O
R 338[CompoundID] OR 123622[CompoundID] OR 23954[CompoundID] OR 6334[CompoundID] OR 2537[CompoundID] OR 24261[CompoundID] OR 23665760[CompoundID] OR 83975[CompoundID] OR 784[CompoundID] OR 24437[Compo
undID] OR 5360315[CompoundID] OR 311[CompoundID] OR 6549[CompoundID] OR 107689[CompoundID] OR 17100[CompoundID] OR 24976875[CompoundID] OR 6654[CompoundID] OR 71245[CompoundID] OR 6442842[CompoundID]
OR 62334[CompoundID] OR 54698175[CompoundID] OR 6328154[CompoundID] OR 24762[CompoundID] OR 440950[CompoundID] OR 7017[CompoundID] OR 5281873[CompoundID] OR 323[CompoundID] OR 5281167[CompoundID] OR 7
175[CompoundID] OR 7292[CompoundID] OR 6335613[CompoundID] OR 7456[CompoundID] OR 7462[CompoundID]

> <resultIndex>
155

> <resultRange>
1-176

> <textQuery>
7628,244,25059,7618,7641,5053,637511,7714,7762,25429,8842,7794,637566,7843,174,7870,86102,7888,7896,1140,8042,8058,8078,8087,8117,8133,115224,8175,8194,445639,4944,8294,93541,8360,8363,656612,125098,3
352,3303913,64805,31200,1712058,31236,31239,31265,31266,31276,6950273,518659,14896,14798,14829,14830,8635,23266,4284,8693,22311,8759,8785,2723810,8857,3893,9936739,516892,5430,9017,15433,107720,955208
1,164825,10275455,16666,9839306,5282227,23676745,32881,91581,39800,33344,15962220,33528,5365075,62829,162381,517202,6433353,2730,5372405,36081,3120,3017,2969,18827,19518,19658,38283,2758,10112,10340,7
12,5794,3347,104150,2912,2450,40326,40585,517055,10913,108242,62097,41679,54680676,62118,753,1030,23673837,54678504,11442,11463,22230,440917,6054,43234,22629,3039,2735067,6144,702,284,176,91688,22947,
47445,1711973,243,10342051,5281875,3776,6224,104926,8755,338,123622,23954,6334,2537,24261,23665760,83975,784,24437,5360315,311,6549,107689,17100,24976875,6654,71245,6442842,62334,54698175,6328154,2476
2,440950,7017,5281873,323,5281167,7175,7292,6335613,7456,7462

$$$$
3,017
  SciTegic10191915303D

 40 40  0  0  0  0            999 V2000
    1.0020    1.8420   -5.4690 C   0  0
    0.5640    1.0130   -4.2620 C   0  0
    0.8720    1.7170   -3.0670 O   0  0
    0.3960    1.0220   -1.7610 P   0  0
    0.9270   -0.4390   -1.7260 O   0  0
   -0.0360   -1.4300   -2.0550 C   0  0
    0.6150   -2.8120   -1.9990 C   0  0
    0.9390    1.8010   -0.5300 O   0  0
    0.6190    1.3620    0.6710 C   0  0
    1.1030    2.0270    1.8170 C   0  0
    0.7460    1.5360    3.0910 C   0  0
    1.2410    2.2150    4.3160 C   0  0
   -0.0560    0.4370    3.2070 N   0  0
   -0.4950   -0.1660    2.0620 C   0  0
   -1.3670   -1.3610    2.1950 C   0  0
   -0.7980   -2.3630    3.1990 C   0  0
   -2.8130   -0.9720    2.5050 C   0  0
   -0.1820    0.2630    0.8020 N   0  0
   -1.3620    1.4100   -1.7270 S   0  0
    0.7830    1.3360   -6.4100 H   0  0
    2.0740    2.0350   -5.4360 H   0  0
    0.4910    2.8050   -5.4820 H   0  0
   -0.5110    0.8350   -4.2860 H   0  0
    1.0880    0.0580   -4.2390 H   0  0
   -0.8550   -1.3610   -1.3390 H   0  0
   -0.4120   -1.2220   -3.0570 H   0  0
   -0.1100   -3.5900   -2.2390 H   0  0
    1.4490   -2.8740   -2.6990 H   0  0
    1.0030   -3.0150   -1.0010 H   0  0
    1.7370    2.8960    1.7180 H   0  0
    0.9080    1.7580    5.2470 H   0  0
    0.9080    3.2530    4.3160 H   0  0
    2.3310    2.2150    4.3160 H   0  0
   -1.2800   -1.7430    1.1780 H   0  0
    0.2480   -2.5940    2.9950 H   0  0
   -1.3570   -3.2990    3.1690 H   0  0
   -0.8600   -1.9700    4.2140 H   0  0
   -3.2070   -0.2630    1.7760 H   0  0
   -2.8850   -0.5110    3.4900 H   0  0
   -3.4580   -1.8500    2.4990 H   0  0
  1  2  1  0
  2  3  1  0
  3  4  1  0
  4  5  1  0
  4  8  1  0
  4 19  2  0
  5  6  1  0
  6  7  1  0
  8  9  1  0
  9 10  2  0
  9 18  1  0
 10 11  1  0
 11 12  1  0
 11 13  2  0
 13 14  1  0
 14 15  1  0
 14 18  2  0
 15 16  1  0
 15 17  1  0
  1 20  1  0
  1 21  1  0
  1 22  1  0
  2 23  1  0
  2 24  1  0
  6 25  1  0
  6 26  1  0
  7 27  1  0
  7 28  1  0
  7 29  1  0
 10 30  1  0
 12 31  1  0
 12 32  1  0
 12 33  1  0
 15 34  1  0
 16 35  1  0
 16 36  1  0
 16 37  1  0
 17 38  1  0
 17 39  1  0
 17 40  1  0
M  END
> <Name>
3,017

> <OBJECTID>
9223372689693147147

> <ActiveAidCount>
25

> <AtomChiralCount>
0

> <AtomChiralDefCount>
0

> <AtomChiralUndefCount>
0

> <BondChiralCount>
0

> <BondChiralDefCount>
0

> <BondChiralUndefCount>
0

> <CID>
3017

> <CanonicalSmiles>
CCOP(=S)(OCC)OC1=NC(=NC(=C1)C)C(C)C

> <Complexity>
307

> <CovalentUnitCount>
1

> <CreateDate>
2005/03/25 00:00

> <HeavyAtomCount>
19

> <HydrogenBondAcceptorCount>
6

> <HydrogenBondDonorCount>
0

> <IUPACName>
diethoxy-(6-methyl-2-propan-2-ylpyrimidin-4-yl)oxy-sulfanylidene-lambda5-phosphane

> <InChI>
InChI=1S/C12H21N2O3PS/c1-6-15-18(19,16-7-2)17-11-8-10(5)13-12(14-11)9(3)4/h8-9H,6-7H2,1-5H3

> <InChIKey>
FHIVAFMUCKRCQO-UHFFFAOYSA-N

> <IsomericSmiles>
CCOP(=S)(OCC)OC1=NC(=NC(=C1)C)C(C)C

> <IsotopeAtomCount>
0

> <MeSHHeading>
Diazinon

> <MeSHTerm>
Bazudine
Dimpylate
Diazinon
Neotsidol
Neocidol

> <MolecularFormula>
C12H21N2O3PS

> <MolecularWeight>
304.35

> <PharmAction>
Neurotransmitter Agents
Specialty Uses of Chemicals
Physiological Effects of Drugs
Enzyme Inhibitors
Molecular Mechanisms of Pharmacological Action
Pharmacologic Actions
Chemical Actions and Uses
Cholinergic Agents
Agrochemicals
Toxic Actions
Insecticides
Pesticides
Cholinesterase Inhibitors

> <RotatableBondCount>
7

> <Smiles>
CCOP(=S)(Oc1nc(C(C)C)nc(C)c1)OCC

> <SourceCategory>
Chemical Vendors
Legacy Depositors
Curation Efforts
Research and Development
Governmental Organizations
NIH Initiatives
Subscription Services
Journal Publishers

> <Synonym>
diazinon
Dimpylate
333-41-5
Diazinone
Oleodiazinon
Neocidol
Ciazinon
Dassitox
Diazitol
Ektoband
Nedcidol
Spectracide
Antigal
Basudin
Bazuden
Dacutox
Dazzel
Diazide
Diazol
Exodin
Flytrol
Galesan
Nucidol
Sarolex
Dicid
Alfa-tox
Diazajet
Dimpylat
Garden Tox
Neocidol (oil)
Bassadinon
Terminator
Compass
Disonex
Dizinon
Drawizon
Kayazinon
Kayazol
Meodinon
Dyzol
Nipsan
Diazinon ag 500
Knox-out
Delzinon
Dimpylatum
Dipofene
Dizictol
Neodinon
Optimizer
Bazudin
Dizinil
Srolex
Basudin 10 G
Geigy 24480
Basudin S
Knox Out 2FM
Bazudine
Diagran
Fezudin
Neotsidol
NCI-C08673
Kleen-Dok
AG-500
ENT 19,507
Isopropylmethylpyrimidyl diethyl thiophosphate
G-24480
KFM Blowfly Dressing
Compass (insecticide)
Caswell No. 342
gardentox
Diziktol
Diaterr-fos
Dimpylatum [INN-Latin]
O,O-Diethyl 2-isopropyl-4-methylpyrimidyl-6-thiophosphate
Cooper's Flystrike Powder
Dimpilato [INN-Spanish]
NSC 8938
G 301
O,O-Diethyl O-(2-isopropyl-6-methyl-4-pyrimidinyl) phosphorothioate
UNII-YUS1M1Q929
Dimpylate [INN]
Diazinon [ANSI:BSI:ISO]
CCRIS 204
Diethyl 4-(2-isopropyl-6-methylpyrimidinyl)phosphorothionate
O-2-Isopropyl-4-methylpyrimidyl-O,O-diethyl phosphorothioate
HSDB 303
Knox Out Yellow Jacket Contorl
O,O-Diethyl O-(2-isopropyl-4-methyl-6-pyrimidyl) thionophosphate
CHEBI:34682
O,O-Diethyl O-6-methyl-2-isopropyl-4-pyrimidinyl phosphorothioate
OMS 469
EINECS 206-373-8
PT 265
EPA Pesticide Chemical Code 057801
Phosphorothioate, O,O-diethyl O-6-(2-isopropyl-4-methylpyrimidyl)
BRN 0273790
Thiophosphate de O,O-diethyle et de O-2-isopropyl-4-methyl-6-pyrimidyle
4-Pyrimidinol, 2-isopropyl-6-methyl-, O-ester with O,O-diethyl phosphorothioate
AI3-19507
Phosphorothioic acid, O,O-diethyl O-(6-methyl-2-(1-methylethyl)-4-pyrimidinyl) ester
YUS1M1Q929
Diethyl 2-isopropyl-4-methyl-6-pyrimidinyl phosphorothionate
NSC8938
Dimpylate (INN)
O,O-Diethyl-O-(2-isopropyl-4-methyl-pyrimidin-6-yl)-monothiofosfaat
G 24480
Phosphorothioic acid, O,O-diethyl O-(2-isopropyl-6-methyl-4-pyrimidinyl) ester
Diethyl 2-isopropyl-4-methyl-6-pyrimidyl thionophosphate
NCGC00091073-01
O,O-Diethyl 2-isopropyl-6-methyl-4-pyrimidinylphosphorothioate
DSSTox_CID_407
O,O-Diethyl O-(2-isopropyl-6-methyl-4-pyrimidinyl)phosphorothioate
O,O-Diethyl-O-(2-isopropyl-4-methyl-6-pyrimidyl)phosphorothioate
Thiophosphoric acid 2-isopropyl-4-methyl-6-pyrimidyl diethyl ester
O,O-Diethyl O-(2-isopropyl-4-methyl-6-pyrimidinyl) phosphorothioate
O,O-diethyl O-[6-methyl-2-(1-methylethyl)pyrimidin-4-yl] thiophosphate
O,O-Diethyl-O-(2-isopropyl-4-methyl-6-pyrimidinyl)-phosphorothioate
Phosphorothioic acid, O,O-diethyl O-(isopropylmethylpyrimidinyl) ester
O,O-Diaethyl-O-(2-isopropyl-4-methyl)-6-pyrimidyl-thionophosphat [German]
O,O-Diaethyl-O-(2-isopropyl-4-methyl-pyrimidin-6-yl)-monothiophosphat [German]
O,O-Diethyl O-(6-methyl-2-(1-methylethyl)-4-pyrimidinyl)phosphorothioate
O,O-Diethyl-O-(2-isopropyl-4-methyl-pyrimidin-6-yl)-monothiofosfaat [Dutch]
O,O-Dietil-O-(2-isopropil-4-metil-pirimidin-6-il)-monotiofosfato [Italian]
DSSTox_RID_75567
Phosphorothioic acid, O,O-diethyl O-[6-methyl-2-(1-methylethyl)-4-pyrimidinyl] ester
Thiophosphate de O,O-diethyle et de O-2-isopropyl-4-methyl-6-pyrimidyle [French]
DSSTox_GSID_20407
Diazinon, analytical standard
Q-200952
Dimpilato
O,O-Diaethyl-O-(2-isopropyl-4-methyl-pyrinidin-6-yl)-monothiophosphat
O,O-Diethyl O-(2-isopropyl-4-methyl-6-pyrimidyl) phosphorothioate
diethoxy-(2-isopropyl-6-methyl-pyrimidin-4-yl)oxy-thioxo-$l^{5}-phosphane
CAS-333-41-5
Spertacide
Bazanon
Antlak
C12H21N2O3PS
Root guard
Fl ytrol
Diazinon solution
Di aterr-fos
Knox Out
Diethyl dimpylatum
diethoxy-(6-methyl-2-propan-2-ylpyrimidin-4-yl)oxy-sulfanylidene-?^{5}-phosphane
Dimpylate, INN
Basudin 5G
Spectracide 25EC
Agridin 60
Basudin 10G
250MG - Diazinon
Spectrum_001777
Dimpylate [INN:BAN]
New Z Diazinon (TN)
SpecPlus_000344
AC1L1EZH
Spectrum2_001226
Spectrum3_000802
Spectrum4_000642
Spectrum5_001929
Optimizer Insecticide (TN)
SCHEMBL17453
BSPBio_002263
KBioGR_000983
KBioSS_002258
5-23-11-00187 (Beilstein Handbook Reference)
MLS002207243
BIDD:ER0457
DivK1c_006440
SPBio_001072
CHEMBL388560
ZINC1309
DTXSID9020407
CTK1C2496
FHIVAFMUCKRCQO-UHFFFAOYSA-
KBio1_001384
KBio2_002257
KBio2_004825
KBio2_007393
KBio3_001763
FHIVAFMUCKRCQO-UHFFFAOYSA-N
HMS3264I04
Pharmakon1600-00330017
EBD29972
HY-B1113
NSC-8938
O,O-Diaethyl-O-(2-isopropyl-4-methyl)-6-pyrimidyl-thionophosphat
o,o-diethyl o-2-isopropyl-6-methylpyrimidin-4-yl phosphorothioate
Tox21_111077
Tox21_201409
Tox21_300730
ACM333415
BDBM50005409
CCG-39143
ENT 19507
NSC755893
O,O-Diaethyl-O-(2-isopropyl-4-methyl-pyrimidin-6-yl)-monothiophosphat
O,O-Dietil-O-(2-isopropil-4-metil-pirimidin-6-il)-monotiofosfato
Diazinon 10 microg/mL in Cyclohexane
Diazinon 1000 microg/mL in Toluene
AKOS025311513
Diazinon 1000 microg/mL in Methanol
Tox21_111077_1
CS-4712
Diazinon 10 microg/mL in Acetonitrile
Diazinon 100 microg/mL in Cyclohexane
LS-1209
NSC-755893
PST0000180
Diazinon 100 microg/mL in Acetonitrile
Phosphorothioic acid O,O-diethyl O-[6-methyl-2-(1-methylethyl)-4-pyrimidinyl] ester
NCGC00091073-02
NCGC00091073-03
NCGC00091073-04
NCGC00091073-05
NCGC00091073-06
NCGC00091073-07
NCGC00254636-01
NCGC00258960-01
AN-44362
BC225665
CC-26452
SMR000777921
ZB000307
SBI-0052498.P002
DB-048387
Diazinon, PESTANAL(R), analytical standard
FT-0603088
C14324
D07856
AB00053004_04
333D415
C-18970
SR-01000872734
SR-01000872734-1
BRD-K60567437-001-04-5
Diazinon, certified reference material, TraceCERT(R)
4-Pyrimidinol, O-ester with O,O-diethyl phosphorothioate
WLN: T6N CNJ BY1 & 1 DOPS & O2 & O2 F1
Diethyl 2-isopropyl-4-met hyl-6-pyrimidyl thionophosphate
O, O-Diethyl 2-isopropyl-4-methylpyrimidyl-6-thiophosphate
O,O-Diethyl-O-(2-isopropyl-4-methylpyrimidyl)thiophosphate
diethyl 2-isopropyl-6-methyl-4-pyrimidinyl phosphorothionate
O,O-diethyl O-2-isopropyl-4-methyl-6-pyrimidyl thiophosphate
o,o-Dietil-o-(2-isopropil-4-metil-pirimidin-il)-monotiofosato
Phosphorothioate,O-diethyl O-6-(2-isopropyl-4-methylpyrimidyl)
Diethyl O-(2-isopropyl-6-methyl-4-pyrimidinyl) phosphorothioate
O,O-Diethyl O-(2-isopropyl-6-methyl-4-primidinyl)phosphorothioate
O,O-Diethyl O-(2-isopropyl-6-methyl-4-pyrimidinyl) thiophosphate
O,O-Diethyl o-(2-isopropyl-6-methyl-4-pyrimidinyl) thiophosphate #
O,O-diethyl O-(2-isopropyl-6-methylpyrimidin-4-yl) thiophosphate
O,O-Diethyl-O-(2-isopropyl-4-methyl-6-pyrimidyl) thiophosphate
diethoxy-(6-methyl-2-propan-2-ylpyrimidin-4-yl)oxy-sulfanylidenephosphorane
Diethoxy-[(2-isopropyl-6-methyl-4-pyrimidinyl)oxy]-thioxophosphorane
O,O-Diethyl O-(2-isopropyl-4-methyl-6-pyrimidinyl) thiophosphoric acid
O,O-Diethyl O-(2-isopropyl-6-methyl-4-pyrimidinyl), phosphorothioa te
O,O-Diethyl O-(2-isopropyl-6-methyl-4-pyrimidinyl), phosphorothioate
O,O-Diethyl O-(6-methyl-2-(1-methylethyl)-4-pyrimidinyl) phosophorothioate
O,O-diethyl O-(6-methyl-2-(1-methylethyl)-4-pyrimidinyl) phosphorothioate
O,O-diethyl O-[6-methyl-2-(propan-2-yl)pyrimidin-4-yl] phosphorothioate
o,o-Diethyl-O-(6-methyl-2-(1-methylethyl)-4-pyrimidinyl)phosophorothioate
Phosphorothioic acid, O,O-diethyl 2-isopropyl-6-methyl-4-pyrimidinyl ester
Phosphorothioic acid,O-diethyl O-(2-isopropyl-6-methyl-4-pyrimidinyl) ester
Diazinon solution, 100 mug/mL in acetonitrile, PESTANAL(R), analytical standard
diethoxy-(6-methyl-2-propan-2-ylpyrimidin-4-yl)oxy-sulfanylidene-$l^{5-phosphane
ethyl 6-methyl-2-(propan-2-yl)pyrimidin-4-yl ethoxy(sulfanylidene)phosphonite
Phosphorothioc Acid O,O-Diethyl O-[6-Methyl-2-(1-methylethyl)-4-pyrimidinyl] Ester
Phosphorothioic acid O,O-diethyl O-[6-methyl- 2-(1-methylethyl)-4-pyrimidinyl] ester
Phosphorothioic acid, O,O-diethyl {O-[6-methyl-2-(1-methylethyl)-4-pyrimidinyl]} ester
Phosphorothioic acid, O,O-diethylO-[6-methyl-2-(1-methylethyl)-4-pyrimidinyl] ester
PHOSPHOROTHIOIC ACID,O-DIETHYL O-[6-METHYL-2-(1-METHYLETHYL)-4-PYRIMIDINYL] ESTER
InChI=1/C12H21N2O3PS/c1-6-15-18(19,16-7-2)17-11-8-10(5)13-12(14-11)9(3)4/h8-9H,6-7H2,1-5H3
O,O-Diethyl O-2-isopropyl-4-methyl-6-pyrimidyl thiophosphate; O,O-Diethyl O-(6-methyl-2-(1-methylethyl)-4-pyrimidinyl) phosophorothioate

> <TPSA>
85.6

> <TotalAidCount>
776

> <TotalFormalCharge>
0

> <XLogP>
3.8

> <database>
PubChem Compound

> <matchingCount>
176

> <primaryID>
3017

> <queryTranslation>
7628[CompoundID] OR 244[CompoundID] OR 25059[CompoundID] OR 7618[CompoundID] OR 7641[CompoundID] OR 5053[CompoundID] OR 637511[CompoundID] OR 7714[CompoundID] OR 7762[CompoundID] OR 25429[CompoundID]
OR 8842[CompoundID] OR 7794[CompoundID] OR 637566[CompoundID] OR 7843[CompoundID] OR 174[CompoundID] OR 7870[CompoundID] OR 86102[CompoundID] OR 7888[CompoundID] OR 7896[CompoundID] OR 1140[CompoundID
] OR 8042[CompoundID] OR 8058[CompoundID] OR 8078[CompoundID] OR 8087[CompoundID] OR 8117[CompoundID] OR 8133[CompoundID] OR 115224[CompoundID] OR 8175[CompoundID] OR 8194[CompoundID] OR 445639[Compou
ndID] OR 4944[CompoundID] OR 8294[CompoundID] OR 93541[CompoundID] OR 8360[CompoundID] OR 8363[CompoundID] OR 656612[CompoundID] OR 125098[CompoundID] OR 3352[CompoundID] OR 3303913[CompoundID] OR 648
05[CompoundID] OR 31200[CompoundID] OR 1712058[CompoundID] OR 31236[CompoundID] OR 31239[CompoundID] OR 31265[CompoundID] OR 31266[CompoundID] OR 31276[CompoundID] OR 6950273[CompoundID] OR 518659[Com
poundID] OR 14896[CompoundID] OR 14798[CompoundID] OR 14829[CompoundID] OR 14830[CompoundID] OR 8635[CompoundID] OR 23266[CompoundID] OR 4284[CompoundID] OR 8693[CompoundID] OR 22311[CompoundID] OR 87
59[CompoundID] OR 8785[CompoundID] OR 2723810[CompoundID] OR 8857[CompoundID] OR 3893[CompoundID] OR 9936739[CompoundID] OR 516892[CompoundID] OR 5430[CompoundID] OR 9017[CompoundID] OR 15433[Compound
ID] OR 107720[CompoundID] OR 9552081[CompoundID] OR 164825[CompoundID] OR 10275455[CompoundID] OR 16666[CompoundID] OR 9839306[CompoundID] OR 5282227[CompoundID] OR 23676745[CompoundID] OR 32881[Compo
undID] OR 91581[CompoundID] OR 39800[CompoundID] OR 33344[CompoundID] OR 15962220[CompoundID] OR 33528[CompoundID] OR 5365075[CompoundID] OR 62829[CompoundID] OR 162381[CompoundID] OR 517202[CompoundI
D] OR 6433353[CompoundID] OR 2730[CompoundID] OR 5372405[CompoundID] OR 36081[CompoundID] OR 3120[CompoundID] OR 3017[CompoundID] OR 2969[CompoundID] OR 18827[CompoundID] OR 19518[CompoundID] OR 19658
[CompoundID] OR 38283[CompoundID] OR 2758[CompoundID] OR 10112[CompoundID] OR 10340[CompoundID] OR 712[CompoundID] OR 5794[CompoundID] OR 3347[CompoundID] OR 104150[CompoundID] OR 2912[CompoundID] OR
2450[CompoundID] OR 40326[CompoundID] OR 40585[CompoundID] OR 517055[CompoundID] OR 10913[CompoundID] OR 108242[CompoundID] OR 62097[CompoundID] OR 41679[CompoundID] OR 54680676[CompoundID] OR 62118[C
ompoundID] OR 753[CompoundID] OR 1030[CompoundID] OR 23673837[CompoundID] OR 54678504[CompoundID] OR 11442[CompoundID] OR 11463[CompoundID] OR 22230[CompoundID] OR 440917[CompoundID] OR 6054[CompoundI
D] OR 43234[CompoundID] OR 22629[CompoundID] OR 3039[CompoundID] OR 2735067[CompoundID] OR 6144[CompoundID] OR 702[CompoundID] OR 284[CompoundID] OR 176[CompoundID] OR 91688[CompoundID] OR 22947[Compo
undID] OR 47445[CompoundID] OR 1711973[CompoundID] OR 243[CompoundID] OR 10342051[CompoundID] OR 5281875[CompoundID] OR 3776[CompoundID] OR 6224[CompoundID] OR 104926[CompoundID] OR 8755[CompoundID] O
R 338[CompoundID] OR 123622[CompoundID] OR 23954[CompoundID] OR 6334[CompoundID] OR 2537[CompoundID] OR 24261[CompoundID] OR 23665760[CompoundID] OR 83975[CompoundID] OR 784[CompoundID] OR 24437[Compo
undID] OR 5360315[CompoundID] OR 311[CompoundID] OR 6549[CompoundID] OR 107689[CompoundID] OR 17100[CompoundID] OR 24976875[CompoundID] OR 6654[CompoundID] OR 71245[CompoundID] OR 6442842[CompoundID]
OR 62334[CompoundID] OR 54698175[CompoundID] OR 6328154[CompoundID] OR 24762[CompoundID] OR 440950[CompoundID] OR 7017[CompoundID] OR 5281873[CompoundID] OR 323[CompoundID] OR 5281167[CompoundID] OR 7
175[CompoundID] OR 7292[CompoundID] OR 6335613[CompoundID] OR 7456[CompoundID] OR 7462[CompoundID]

> <resultIndex>
156

> <resultRange>
1-176

> <textQuery>
7628,244,25059,7618,7641,5053,637511,7714,7762,25429,8842,7794,637566,7843,174,7870,86102,7888,7896,1140,8042,8058,8078,8087,8117,8133,115224,8175,8194,445639,4944,8294,93541,8360,8363,656612,125098,3
352,3303913,64805,31200,1712058,31236,31239,31265,31266,31276,6950273,518659,14896,14798,14829,14830,8635,23266,4284,8693,22311,8759,8785,2723810,8857,3893,9936739,516892,5430,9017,15433,107720,955208
1,164825,10275455,16666,9839306,5282227,23676745,32881,91581,39800,33344,15962220,33528,5365075,62829,162381,517202,6433353,2730,5372405,36081,3120,3017,2969,18827,19518,19658,38283,2758,10112,10340,7
12,5794,3347,104150,2912,2450,40326,40585,517055,10913,108242,62097,41679,54680676,62118,753,1030,23673837,54678504,11442,11463,22230,440917,6054,43234,22629,3039,2735067,6144,702,284,176,91688,22947,
47445,1711973,243,10342051,5281875,3776,6224,104926,8755,338,123622,23954,6334,2537,24261,23665760,83975,784,24437,5360315,311,6549,107689,17100,24976875,6654,71245,6442842,62334,54698175,6328154,2476
2,440950,7017,5281873,323,5281167,7175,7292,6335613,7456,7462

$$$$
2,969
  SciTegic10191915303D

 32 31  0  0  0  0            999 V2000
   -5.0490   -1.5720   -2.3870 C   0  0
   -3.5190   -1.5720   -2.3870 C   0  0
   -2.9300   -0.7790   -1.2210 C   0  0
   -1.4020   -0.7930   -1.2110 C   0  0
   -0.8120    0.0000   -0.0450 C   0  0
    0.7170   -0.0160   -0.0350 C   0  0
    1.3070    0.7790    1.1330 C   0  0
    2.8360    0.7600    1.1440 C   0  0
    3.4260    1.5760    2.2950 C   0  0
    4.9320    1.5660    2.2910 C   0  0
    5.5510    1.3750    1.2710 O   0  0
    5.5020    1.7830    3.4750 O   0  0
   -5.4350   -2.0740   -3.2740 H   0  0
   -5.4350   -2.0740   -1.4980 H   0  0
   -5.4350   -0.5530   -2.3870 H   0  0
   -3.1350   -1.2050   -3.3380 H   0  0
   -3.1350   -2.5920   -2.3930 H   0  0
   -3.3240   -1.1410   -0.2700 H   0  0
   -3.3070    0.2440   -1.2210 H   0  0
   -1.0080   -0.4340   -2.1600 H   0  0
   -1.0250   -1.8160   -1.2110 H   0  0
   -1.2070   -0.3610    0.9060 H   0  0
   -1.1870    1.0230   -0.0450 H   0  0
    1.1120    0.3460   -0.9840 H   0  0
    1.0940   -1.0370   -0.0330 H   0  0
    0.9100    0.4200    2.0820 H   0  0
    0.9340    1.8030    1.1290 H   0  0
    3.2330    1.1000    0.1870 H   0  0
    3.2090   -0.2640    1.1680 H   0  0
    3.0550    1.1170    3.2110 H   0  0
    3.0630    2.6030    2.2660 H   0  0
    6.4650    1.7890    3.5410 H   0  0
  1  2  1  0
  2  3  1  0
  3  4  1  0
  4  5  1  0
  5  6  1  0
  6  7  1  0
  7  8  1  0
  8  9  1  0
  9 10  1  0
 10 11  2  0
 10 12  1  0
  1 13  1  0
  1 14  1  0
  1 15  1  0
  2 16  1  0
  2 17  1  0
  3 18  1  0
  3 19  1  0
  4 20  1  0
  4 21  1  0
  5 22  1  0
  5 23  1  0
  6 24  1  0
  6 25  1  0
  7 26  1  0
  7 27  1  0
  8 28  1  0
  8 29  1  0
  9 30  1  0
  9 31  1  0
 12 32  1  0
M  END
> <Name>
2,969

> <OBJECTID>
9223372693988114443

> <ActiveAidCount>
13

> <AtomChiralCount>
0

> <AtomChiralDefCount>
0

> <AtomChiralUndefCount>
0

> <BondChiralCount>
0

> <BondChiralDefCount>
0

> <BondChiralUndefCount>
0

> <CID>
2969

> <CanonicalSmiles>
CCCCCCCCCC(=O)O

> <Complexity>
110

> <CovalentUnitCount>
1

> <CreateDate>
2004/09/16 00:00

> <HeavyAtomCount>
12

> <HydrogenBondAcceptorCount>
2

> <HydrogenBondDonorCount>
1

> <IUPACName>
decanoic acid

> <InChI>
InChI=1S/C10H20O2/c1-2-3-4-5-6-7-8-9-10(11)12/h2-9H2,1H3,(H,11,12)

> <InChIKey>
GHVNFZFCNZKVNT-UHFFFAOYSA-N

> <IsomericSmiles>
CCCCCCCCCC(=O)O

> <IsotopeAtomCount>
0

> <MeSHHeading>
decanoic acid

> <MeSHTerm>
decanoic acid, sodium salt
sodium decanoate
sodium caprate
decanoic acid
capric acid

> <MolecularFormula>
C10H20O2

> <MolecularWeight>
172.26

> <PharmAction>
Anti-Infective Agents
Chemical Actions and Uses
Pharmacologic Actions
Antifungal Agents
Therapeutic Uses

> <RotatableBondCount>
8

> <Smiles>
CCCCCCCCCC(O)=O

> <SourceCategory>
Chemical Vendors
Legacy Depositors
Research and Development
Curation Efforts
Governmental Organizations
NIH Initiatives
Subscription Services
Journal Publishers

> <Synonym>
Decanoic acid
CAPRIC ACID
334-48-5
n-Decanoic acid
n-Capric acid
Decylic acid
Decoic acid
Caprinic acid
Caprynic acid
n-Decylic acid
n-Decoic acid
1-Nonanecarboxylic acid
Neo-fat 10
Hexacid 1095
decanoate
tert-DECANOIC ACID
C10 fatty acid
Versatic 10
Versatic 10 acid
Fatty acid(C10)
NSC 5025
Econosan Acid Sanitizer
Decanoic acid (natural)
UNII-4G9EDB6V73
FEMA No. 2364
CCRIS 4610
HSDB 2751
Emery 659
C10:0
EINECS 206-376-4
MFCD00004441
EPA Pesticide Chemical Code 128955
BRN 1754556
AI3-04453
4G9EDB6V73
CHEBI:30813
GHVNFZFCNZKVNT-UHFFFAOYSA-N
caprynate
decoate
decylate
C10H20O2
n-caprate
n-decoate
n-decylate
Lead caprate
Decanoic acid, 99%
NCGC00091320-02
FA(10:0)
1-nonanecarboxylate
Decanoic acid anion
DSSTox_CID_1554
DSSTox_RID_76208
DSSTox_GSID_21554
DKA
Capricacid
CAS-334-48-5
NON
Dekansaeure
Kaprinsaeure
1-decanoic acid
nonanecarboxylic acid
Nat. Decanoic Acid
Prifrac 296
Prifac 296
Acid C10
Decanoic acid, 96%
Prifac 2906
AC1L1EVN
Nonane-1-carboxylic acid
ACMC-1CKM4
Lunac 10-95
Lunac 10-98
bmse000370
C10:0 (Lipid numbers)
SCHEMBL2682
WLN: QV9
Decanoic acid (Capric acid)
4-02-00-01041 (Beilstein Handbook Reference)
Decanoic acid, >=98.0%
KSC222I3L
MLS002415724
CAPRIC ACID (NATURAL)
CH3-[CH2]8-COOH
CHEMBL107498
GTPL5532
Jsp006130
DTXSID9021554
CTK1C2435
Decanoic acid, lead (2+) salt
KS-00000UKL
NSC5025
Decanoic acid, analytical standard
HMS2267B15
NSC-5025
ZINC1529229
Decanoic acid, >=98.0% (GC)
Tox21_113533
Tox21_202209
Tox21_300366
ANW-27636
LMFA01010010
SBB060022
STL445666
Decanoic acid, >=98%, FCC, FG
AKOS000119623
AN-1412
CAPRIC ACID, 99.5% (GLC)
CS-W016025
DB03600
HY-W015309
LS-1213
MCULE-3914949169
RL03222
RTR-013994
NCGC00091320-01
NCGC00091320-03
NCGC00091320-04
NCGC00091320-05
NCGC00254437-01
NCGC00259758-01
AS-14704
LS-59338
M249
SMR001252255
TR-013994
D0017
Decanoic acid, natural, >=98%, FCC, FG
FT-0665532
ST51046284
C01571
I04-1206
W-202368
I04-12785
Z1259273370
UNII-13FB83DEYU component GHVNFZFCNZKVNT-UHFFFAOYSA-N
UNII-DI775RT244 component GHVNFZFCNZKVNT-UHFFFAOYSA-N
98230577-0D20-4F70-B532-00AC60132CFE
UNII-79P21R4317 component GHVNFZFCNZKVNT-UHFFFAOYSA-N
InChI=1/C10H20O2/c1-2-3-4-5-6-7-8-9-10(11)12/h2-9H2,1H3,(H,11,12
CRC

> <TPSA>
37.3

> <TotalAidCount>
762

> <TotalFormalCharge>
0

> <XLogP>
4.1

> <database>
PubChem Compound

> <matchingCount>
176

> <primaryID>
2969

> <queryTranslation>
7628[CompoundID] OR 244[CompoundID] OR 25059[CompoundID] OR 7618[CompoundID] OR 7641[CompoundID] OR 5053[CompoundID] OR 637511[CompoundID] OR 7714[CompoundID] OR 7762[CompoundID] OR 25429[CompoundID]
OR 8842[CompoundID] OR 7794[CompoundID] OR 637566[CompoundID] OR 7843[CompoundID] OR 174[CompoundID] OR 7870[CompoundID] OR 86102[CompoundID] OR 7888[CompoundID] OR 7896[CompoundID] OR 1140[CompoundID
] OR 8042[CompoundID] OR 8058[CompoundID] OR 8078[CompoundID] OR 8087[CompoundID] OR 8117[CompoundID] OR 8133[CompoundID] OR 115224[CompoundID] OR 8175[CompoundID] OR 8194[CompoundID] OR 445639[Compou
ndID] OR 4944[CompoundID] OR 8294[CompoundID] OR 93541[CompoundID] OR 8360[CompoundID] OR 8363[CompoundID] OR 656612[CompoundID] OR 125098[CompoundID] OR 3352[CompoundID] OR 3303913[CompoundID] OR 648
05[CompoundID] OR 31200[CompoundID] OR 1712058[CompoundID] OR 31236[CompoundID] OR 31239[CompoundID] OR 31265[CompoundID] OR 31266[CompoundID] OR 31276[CompoundID] OR 6950273[CompoundID] OR 518659[Com
poundID] OR 14896[CompoundID] OR 14798[CompoundID] OR 14829[CompoundID] OR 14830[CompoundID] OR 8635[CompoundID] OR 23266[CompoundID] OR 4284[CompoundID] OR 8693[CompoundID] OR 22311[CompoundID] OR 87
59[CompoundID] OR 8785[CompoundID] OR 2723810[CompoundID] OR 8857[CompoundID] OR 3893[CompoundID] OR 9936739[CompoundID] OR 516892[CompoundID] OR 5430[CompoundID] OR 9017[CompoundID] OR 15433[Compound
ID] OR 107720[CompoundID] OR 9552081[CompoundID] OR 164825[CompoundID] OR 10275455[CompoundID] OR 16666[CompoundID] OR 9839306[CompoundID] OR 5282227[CompoundID] OR 23676745[CompoundID] OR 32881[Compo
undID] OR 91581[CompoundID] OR 39800[CompoundID] OR 33344[CompoundID] OR 15962220[CompoundID] OR 33528[CompoundID] OR 5365075[CompoundID] OR 62829[CompoundID] OR 162381[CompoundID] OR 517202[CompoundI
D] OR 6433353[CompoundID] OR 2730[CompoundID] OR 5372405[CompoundID] OR 36081[CompoundID] OR 3120[CompoundID] OR 3017[CompoundID] OR 2969[CompoundID] OR 18827[CompoundID] OR 19518[CompoundID] OR 19658
[CompoundID] OR 38283[CompoundID] OR 2758[CompoundID] OR 10112[CompoundID] OR 10340[CompoundID] OR 712[CompoundID] OR 5794[CompoundID] OR 3347[CompoundID] OR 104150[CompoundID] OR 2912[CompoundID] OR
2450[CompoundID] OR 40326[CompoundID] OR 40585[CompoundID] OR 517055[CompoundID] OR 10913[CompoundID] OR 108242[CompoundID] OR 62097[CompoundID] OR 41679[CompoundID] OR 54680676[CompoundID] OR 62118[C
ompoundID] OR 753[CompoundID] OR 1030[CompoundID] OR 23673837[CompoundID] OR 54678504[CompoundID] OR 11442[CompoundID] OR 11463[CompoundID] OR 22230[CompoundID] OR 440917[CompoundID] OR 6054[CompoundI
D] OR 43234[CompoundID] OR 22629[CompoundID] OR 3039[CompoundID] OR 2735067[CompoundID] OR 6144[CompoundID] OR 702[CompoundID] OR 284[CompoundID] OR 176[CompoundID] OR 91688[CompoundID] OR 22947[Compo
undID] OR 47445[CompoundID] OR 1711973[CompoundID] OR 243[CompoundID] OR 10342051[CompoundID] OR 5281875[CompoundID] OR 3776[CompoundID] OR 6224[CompoundID] OR 104926[CompoundID] OR 8755[CompoundID] O
R 338[CompoundID] OR 123622[CompoundID] OR 23954[CompoundID] OR 6334[CompoundID] OR 2537[CompoundID] OR 24261[CompoundID] OR 23665760[CompoundID] OR 83975[CompoundID] OR 784[CompoundID] OR 24437[Compo
undID] OR 5360315[CompoundID] OR 311[CompoundID] OR 6549[CompoundID] OR 107689[CompoundID] OR 17100[CompoundID] OR 24976875[CompoundID] OR 6654[CompoundID] OR 71245[CompoundID] OR 6442842[CompoundID]
OR 62334[CompoundID] OR 54698175[CompoundID] OR 6328154[CompoundID] OR 24762[CompoundID] OR 440950[CompoundID] OR 7017[CompoundID] OR 5281873[CompoundID] OR 323[CompoundID] OR 5281167[CompoundID] OR 7
175[CompoundID] OR 7292[CompoundID] OR 6335613[CompoundID] OR 7456[CompoundID] OR 7462[CompoundID]

> <resultIndex>
157

> <resultRange>
1-176

> <textQuery>
7628,244,25059,7618,7641,5053,637511,7714,7762,25429,8842,7794,637566,7843,174,7870,86102,7888,7896,1140,8042,8058,8078,8087,8117,8133,115224,8175,8194,445639,4944,8294,93541,8360,8363,656612,125098,3
352,3303913,64805,31200,1712058,31236,31239,31265,31266,31276,6950273,518659,14896,14798,14829,14830,8635,23266,4284,8693,22311,8759,8785,2723810,8857,3893,9936739,516892,5430,9017,15433,107720,955208
1,164825,10275455,16666,9839306,5282227,23676745,32881,91581,39800,33344,15962220,33528,5365075,62829,162381,517202,6433353,2730,5372405,36081,3120,3017,2969,18827,19518,19658,38283,2758,10112,10340,7
12,5794,3347,104150,2912,2450,40326,40585,517055,10913,108242,62097,41679,54680676,62118,753,1030,23673837,54678504,11442,11463,22230,440917,6054,43234,22629,3039,2735067,6144,702,284,176,91688,22947,
47445,1711973,243,10342051,5281875,3776,6224,104926,8755,338,123622,23954,6334,2537,24261,23665760,83975,784,24437,5360315,311,6549,107689,17100,24976875,6654,71245,6442842,62334,54698175,6328154,2476
2,440950,7017,5281873,323,5281167,7175,7292,6335613,7456,7462

$$$$
2,912
  SciTegic10191915303D

 47 49  0  0  1  0            999 V2000
   -0.3600    6.4540   -0.7240 Cl  0  0
   -2.5910    6.4630    1.2770 Cl  0  0
    2.0910    0.4870    0.7700 O   0  0
    0.9730    1.1260   -1.0640 O   0  0
   -1.8760   -2.4030    0.4020 O   0  0
    4.0990    0.4480   -1.9360 N   0  0
    1.5860    3.9060    0.5270 C   0  0
    0.9130    2.5770    0.8260 C   0  0  3  0  0  0
    0.1500    3.6610    0.0930 C   0  0  3  0  0  0
    1.3250    1.3240    0.0750 C   0  0
   -0.9930    4.3680    0.7980 C   0  0
    1.8490    4.8370    1.7060 C   0  0
    2.6450    3.9620   -0.5690 C   0  0
    2.6100   -0.5630   -0.0320 C   0  0  3  0  0  0
   -1.2910    5.6390    0.4850 C   0  0
    1.4910   -1.3930   -0.5480 C   0  0
    0.3010   -1.5100    0.1930 C   0  0
    3.4400    0.0000   -1.0930 C   0  0
   -0.7610   -2.2940   -0.2930 C   0  0
    1.6190   -2.0620   -1.7780 C   0  0
   -0.6280   -2.9610   -1.5230 C   0  0
    0.5590   -2.8460   -2.2650 C   0  0
   -2.4930   -3.5680    0.4020 C   0  0
   -3.8980   -3.6230    0.4020 C   0  0
   -1.7490   -4.7610    0.4020 C   0  0
   -4.5570   -4.8640    0.4020 C   0  0
   -2.4060   -6.0040    0.4020 C   0  0
   -3.8110   -6.0550    0.4020 C   0  0
    0.6310    2.3990    1.8650 H   0  0
   -0.0150    3.5040   -0.9730 H   0  0
   -1.6140    3.9210    1.5610 H   0  0
    1.0880    4.7360    2.4800 H   0  0
    1.8570    5.8770    1.3810 H   0  0
    2.8160    4.6210    2.1590 H   0  0
    2.3620    3.3310   -1.4120 H   0  0
    2.7820    4.9850   -0.9210 H   0  0
    3.6060    3.6080   -0.1950 H   0  0
    3.2300   -1.1630    0.6340 H   0  0
    0.1990   -0.9970    1.1380 H   0  0
    2.5300   -1.9760   -2.3520 H   0  0
   -1.4410   -3.5650   -1.9000 H   0  0
    0.6590   -3.3600   -3.2100 H   0  0
   -4.4750   -2.7090    0.4020 H   0  0
   -0.6690   -4.7260    0.4020 H   0  0
   -5.6360   -4.9030    0.4020 H   0  0
   -1.8320   -6.9180    0.4020 H   0  0
   -4.3160   -7.0090    0.4020 H   0  0
  1 15  1  0
  2 15  1  0
  3 10  1  0
  3 14  1  0
  4 10  2  0
  5 19  1  0
  5 23  1  0
  6 18  3  0
  7  8  1  0
  7  9  1  0
  7 12  1  0
  7 13  1  0
  8  9  1  0
  8 10  1  0
  9 11  1  0
 11 15  2  0
 14 16  1  0
 14 18  1  0
 16 17  2  0
 16 20  1  0
 17 19  1  0
 19 21  2  0
 20 22  2  0
 21 22  1  0
 23 24  2  0
 23 25  1  0
 24 26  1  0
 25 27  2  0
 26 28  2  0
 27 28  1  0
  8 29  1  0
  9 30  1  0
 11 31  1  0
 12 32  1  0
 12 33  1  0
 12 34  1  0
 13 35  1  0
 13 36  1  0
 13 37  1  0
 14 38  1  0
 17 39  1  0
 20 40  1  0
 21 41  1  0
 22 42  1  0
 24 43  1  0
 25 44  1  0
 26 45  1  0
 27 46  1  0
 28 47  1  0
M  END
> <Name>
2,912

> <OBJECTID>
9223372698283081739

> <ActiveAidCount>
13

> <AtomChiralCount>
3

> <AtomChiralDefCount>
0

> <AtomChiralUndefCount>
3

> <BondChiralCount>
0

> <BondChiralDefCount>
0

> <BondChiralUndefCount>
0

> <CID>
2912

> <CanonicalSmiles>
CC1(C(C1C(=O)OC(C#N)C2=CC(=CC=C2)OC3=CC=CC=C3)C=C(Cl)Cl)C

> <Complexity>
643

> <CovalentUnitCount>
1

> <CreateDate>
2005/03/25 00:00

> <HeavyAtomCount>
28

> <HydrogenBondAcceptorCount>
4

> <HydrogenBondDonorCount>
0

> <IUPACName>
[cyano-(3-phenoxyphenyl)methyl] 3-(2,2-dichloroethenyl)-2,2-dimethylcyclopropane-1-carboxylate

> <InChI>
InChI=1S/C22H19Cl2NO3/c1-22(2)17(12-19(23)24)20(22)21(26)28-18(13-25)14-7-6-10-16(11-14)27-15-8-4-3-5-9-15/h3-12,17-18,20H,1-2H3

> <InChIKey>
KAATUXNTWXVJKI-UHFFFAOYSA-N

> <IsomericSmiles>
CC1(C(C1C(=O)OC(C#N)C2=CC(=CC=C2)OC3=CC=CC=C3)C=C(Cl)Cl)C

> <IsotopeAtomCount>
0

> <MeSHHeading>
cypermethrin

> <MeSHTerm>
cypermethrin, (1alpha(S*),3alpha)-(+-)-isomer
alphamethrin
alpha-cypermethrin
supercypermethrin
WL 85871
cypermethrin, (1R-(1alpha(R*),3beta))-isomer
Fendona
NRDC 149
cypermethrin
beta-cipermetrina
supermethrin
cypermethrin, (1R-(1alpha(S*),3beta))-isomer
WL-85871
Cymbush
alphacypermethrin
Fastac 50EC

> <MolecularFormula>
C22H19Cl2NO3

> <MolecularWeight>
416.3

> <PharmAction>
Insecticides
Specialty Uses of Chemicals
Pesticides
Chemical Actions and Uses
Toxic Actions
Agrochemicals

> <RotatableBondCount>
7

> <Smiles>
Cl\C(=C\C(C1C(=O)OC(C#N)c2cccc(c2)Oc3ccccc3)C1(C)C)\Cl

> <SourceCategory>
Legacy Depositors
Chemical Vendors
Research and Development
Curation Efforts
Governmental Organizations
NIH Initiatives
Subscription Services
Journal Publishers

> <Synonym>
cypermethrin
52315-07-8
Supercypermethrin
Barricade
Ripcord
Ammo
Cypermethrine
Cymbush
Ustaad
Beta-cypermethrin
alpha-cypermethrin
Zeta-cypermethrin
Agrothrin
Basathrin
Creokhin
Cymperator
Cypercopal
Cyperkill
Cypersect
Flectron
Hilcyperin
Neramethrin
Polytrin
Arrivo
Cyperco
Kordon
Mustang
Sherpa
Siperin
Toppel
Ardap
Demon
Excis
Fenom
Colt
Fury
cis-Cypermethrin
Ambush C
Nrdc 149
Asymmethrin
Chinmix
Cypercare
Cyperil
Ectomin
Ectopor
Kreokhin
Rycopel
Dysect
Nurele
Cypor
Cyrux
Drago
Supercypermethrin forte
Topclip Parasol
Fury Insecticide
Kalif Super
Cympa-Ti
Ambush CY
Ammo (pesticide)
Demon TC
Barricade 10EC
Cypermethrin-25ec
Fenom (pesticide)
Antiborer 3767
Cypermethrin [BAN]
Neramethrin EC 50
Alphamethrin
Cypermetryna [Polish]
alphamethrine
Vucht 424
Wrdc149
Avicade
Barricade (insecticide)
Caswell No. 268AA
Nrdc-149
Cypermethrine [ISO-French]
67375-30-8
FMC 30980
FMC 45806
PP 383
CCN 52
CCRIS 2499
Cypermethrin [ANSI:BSI:ISO]
Ecofleece Sheep Dip (Non-OP)
Cyclopropanecarboxylic acid, 3-(2,2-dichloroethenyl)-2,2-dimethyl-, cyano(3-phenoxyphenyl)methyl ester
WL 43467
HSDB 6600
EXP 5598
JF 5705F
EINECS 257-842-9
FMC 45497
YT 305
EPA Pesticide Chemical Code 109702
EPA Pesticide Chemical Code 129064
WL 8517
BRN 2422506
RU 27998
SF 06646
AI3-29295
Cyano(3-phenoxyphenyl)methyl 3-(2,2-dichlorovinyl)-2,2-dimethylcyclopropanecarboxylate
CHEBI:4042
theta-Cypermethrin
KAATUXNTWXVJKI-UHFFFAOYSA-N
Cypermethrin (BAN)
alpha-Cyano-3-phenoxybenzyl 3-(2,2-dichlorovinyl)-2,2-dimethylcyclopropanecarboxylate
Cypermethrin, 98%
alpha-Cyano(3-phenoxyphenyl)methyl (+-)cis,trans-3-(2,2-dichlorovinyl)-2,2-dimethylcyclopropanecarboxylate
NCGC00160389-02
Cypermethrin, High Effect
DSSTox_CID_3998
(+-)-alpha-Cyano-3-phenoxybenzyl 2,2-dimethyl-3-(2,2-dichlorovinyl)cyclopropane carboxylate
Cyano(3-phenoxyphenyl)methyl 3-(2,2-dichloroethenyl)-2,2-dimethylcycloptopanecarboxylate
DSSTox_RID_77252
DSSTox_GSID_23998
(+)-alpha-Cyano-3-phenoxybenzyl-(+)-cis,trans-2,2-dichlorovinyl-2,2-dimethylcyclopropanecarboxylate
(+-)-alpha-Cyano-3-phenoxybenzyl-(+-)-cis,trans-3-(2,2-dichlorovinyl)-2,2-dimethylcyclopropane carboxylate
(RS)-alpha-Cyano-3-phenoxybenzyl (1RS)-cis,trans-3-(2,2-dichlorovinyl)-2,2-dimethylcyclopropanecarboxylate
3-(2,2-Dichloroethenyl)-2,2-dimethylcyclopropanecarboxylic acid cyano(3-phenoxyphenyl)-, methyl ester
C22H19Cl2NO3
Cypermetryna
CYPEMETHRIM
(R,S)-alpha-Cyano-3-phenoxybenzyl-3-(2,2-dichlorovinyl)-2,2-dimethylcyclopropanecarboxylate
[cyano-(3-phenoxyphenyl)methyl] 3-(2,2-dichlorovinyl)-2,2-dimethyl-cyclopropanecarboxylate
cyano(3-phenoxyphenyl)methyl 3-(2,2-dichloroethenyl)-2,2-dimethylcyclopropanecarboxylate
(RS)-alpha-Cyano-3-phenoxybenzyl (1RS,3RS)-(1RS,3RS)-3-(2,2-dichlorovinyl)-2,2-dimethylcyclopropanecarboxylate
[cyano-(3-phenoxyphenyl)methyl] 3-(2,2-dichloroethenyl)-2,2-dimethylcyclopropane-1-carboxylate
86753-92-6
97955-44-7
.alpha.-cypermethrin
CAS-52315-07-8
NRDC 159
Aimcocyper
Cypromethin
Folcord
Prevail
Ralothrin
Kafil super
CCRIS 4067
MFCD00055328
Beta Cypermethrin
Fligene CI
Zetagard (TN)
Cyclopropanecarboxylic acid, 3-(2,2-dichloroethenyl)-2,2-dimethyl-, (R)-cyano(3-phenoxyphenyl)methyl ester, (1S,3S)-rel-
Cypermethrin, liquid
137497-61-1
Spectrum_001862
SpecPlus_000718
Spectrum5_001858
AC1L1ER5
CCN52
SCHEMBL21972
BMK1-H8
BSPBio_001598
KBioGR_000318
KBioSS_000318
KBioSS_002379
DivK1c_006814
CHEMBL373204
DTXSID1023998
BCBcMAP01_000010
CTK8E9321
KBio1_001758
KBio2_000318
KBio2_002375
KBio2_002886
KBio2_004943
KBio2_005454
KBio2_007511
KBio3_000635
KBio3_000636
Cypermethrin, >=98% (HPLC)
Bio1_000414
Bio1_000903
Bio1_001392
Bio2_000318
Bio2_000798
HMS1361P20
HMS1791P20
HMS1989P20
HMS3264O17
HMS3402P20
Pharmakon1600-01503606
Cyclopropanecarboxylic acid, 3-(2,2-dichloroethenyl)-2,2-dimethyl-, cyano(3-phenoxyphenyl)methyl ester, (1-alpha(S*),3-beta)-(+-)-
Tox21_113579
Tox21_300892
NSC760420
AKOS015899999
Tox21_113579_1
CCG-213883
KS-5077
MCULE-6598717797
NSC-760420
Cypermethrin 10 microg/mL in Isooctane
IDI1_034068
NCGC00160389-01
NCGC00160389-03
NCGC00160389-04
NCGC00160389-05
NCGC00160389-06
NCGC00160389-07
NCGC00160389-09
NCGC00163438-01
NCGC00254796-01
AC-22284
AN-37582
AN-40985
CC-26166
H997
LS-58626
LS-58628
LS-87424
M228
Cypermethrin 10 microg/mL in Acetonitrile
Cypermethrin 100 microg/mL in Cyclohexane
SBI-0051832.P002
(S)-alpha-Cyano-3-phenoxybenzyl(1RS,3RS
AB0013412
Cypermethrin 100 microg/mL in Acetonitrile
TL8003454
TR-018571
TR-022640
4CH-024801
521-EP2274983A1
521-EP2275422A1
521-EP2280009A1
521-EP2292608A1
521-EP2298076A1
521-EP2298077A1
521-EP2301353A1
521-EP2305031A1
521-EP2305034A1
521-EP2305035A1
521-EP2308857A1
521-EP2308858A1
521-EP2311816A1
521-EP2311817A1
521-EP2314583A1
FT-0603149
ST24033655
15C078
C10984
D07763
41650-EP2311808A1
41650-EP2311829A1
88581-EP2292608A1
88581-EP2298076A1
88581-EP2298077A1
88581-EP2301353A1
88581-EP2305031A1
88581-EP2305034A1
88581-EP2305035A1
AB00052361_02
Cypermethrin, PESTANAL(R), analytical standard
C-22001
SR-01000872736
SR-01000872736-1
alpha-Cypermethrin, PESTANAL(R), analytical standard
I14-10163
I14-10692
Cypermethrin, certified reference material, TraceCERT(R)
(1RS)-cis,trans-3-(2,2-Dichlorovinyl)-2,2-dimethylcyclopropanecarboxylate
1RS,3SR)-3-(2,2-dichlorovinyl)-2,2-dimethylcyclopropane-carboxylate
alpha-cyano-3-phenoxybenzyl 2-(2',2'-dichlorovinyl)-3,3-dimethylcyclopropanecarboxylate
alpha-cyano-3-phenoxybenzyl 2-(2,2-dichlorovinyl)-3,3-dimethylcyclopropanecarboxylate
alpha-cyano-3-phenoxybenzyl 3-(2,2-dichloroethenyl)-2,2-dimethylcyclopropanecarboxylate
Cyano(3-phenoxyphenyl)methyl 3-(2,2-dichlorovinyl)-2,2-dimethylcyclopropanecarboxylate #
Cypermethrin solution, 100 mug/mL in acetonitrile, PESTANAL(R), analytical standard
(alpha)-alpha-Cyano-3-Phenoxybenzyl-2,2- Dimethyl-3-(2,2-Dichlorovinyl) Cyclopropane Carboxylate
(alpha)-alpha-Cyano-3-Phenoxybenzyl-2,2-Dimethyl-3-(2,2-Dichlorovinyl) Cyclopropane Carboxylate
[(S)-cyano-(3-phenoxyphenyl)methyl] (1S,3R)-3-(2,2-dichloroethenyl)-2,2-dimethylcyclopropane-1-carboxylate
3-(2,2-Dichloro-vinyl)-2,2-dimethyl-cyclopropanecarboxylic acid cyano-(3-phenoxy-phenyl)-methyl ester
3-(2,2-Dichloroethenyl)-2,2-dimethylcyclopropanecarboxylic acid, cyano(3-phenoxyphenyl)methyl ester
3-(2,2-dichlorovinyl)-2,2-dimethyl-cyclopropane-1-carboxylic acid 3-phenoxy-alpha-cyano-benzyl ester

> <TPSA>
59.3

> <TotalAidCount>
479

> <TotalFormalCharge>
0

> <XLogP>
6

> <database>
PubChem Compound

> <matchingCount>
176

> <primaryID>
2912

> <queryTranslation>
7628[CompoundID] OR 244[CompoundID] OR 25059[CompoundID] OR 7618[CompoundID] OR 7641[CompoundID] OR 5053[CompoundID] OR 637511[CompoundID] OR 7714[CompoundID] OR 7762[CompoundID] OR 25429[CompoundID]
OR 8842[CompoundID] OR 7794[CompoundID] OR 637566[CompoundID] OR 7843[CompoundID] OR 174[CompoundID] OR 7870[CompoundID] OR 86102[CompoundID] OR 7888[CompoundID] OR 7896[CompoundID] OR 1140[CompoundID
] OR 8042[CompoundID] OR 8058[CompoundID] OR 8078[CompoundID] OR 8087[CompoundID] OR 8117[CompoundID] OR 8133[CompoundID] OR 115224[CompoundID] OR 8175[CompoundID] OR 8194[CompoundID] OR 445639[Compou
ndID] OR 4944[CompoundID] OR 8294[CompoundID] OR 93541[CompoundID] OR 8360[CompoundID] OR 8363[CompoundID] OR 656612[CompoundID] OR 125098[CompoundID] OR 3352[CompoundID] OR 3303913[CompoundID] OR 648
05[CompoundID] OR 31200[CompoundID] OR 1712058[CompoundID] OR 31236[CompoundID] OR 31239[CompoundID] OR 31265[CompoundID] OR 31266[CompoundID] OR 31276[CompoundID] OR 6950273[CompoundID] OR 518659[Com
poundID] OR 14896[CompoundID] OR 14798[CompoundID] OR 14829[CompoundID] OR 14830[CompoundID] OR 8635[CompoundID] OR 23266[CompoundID] OR 4284[CompoundID] OR 8693[CompoundID] OR 22311[CompoundID] OR 87
59[CompoundID] OR 8785[CompoundID] OR 2723810[CompoundID] OR 8857[CompoundID] OR 3893[CompoundID] OR 9936739[CompoundID] OR 516892[CompoundID] OR 5430[CompoundID] OR 9017[CompoundID] OR 15433[Compound
ID] OR 107720[CompoundID] OR 9552081[CompoundID] OR 164825[CompoundID] OR 10275455[CompoundID] OR 16666[CompoundID] OR 9839306[CompoundID] OR 5282227[CompoundID] OR 23676745[CompoundID] OR 32881[Compo
undID] OR 91581[CompoundID] OR 39800[CompoundID] OR 33344[CompoundID] OR 15962220[CompoundID] OR 33528[CompoundID] OR 5365075[CompoundID] OR 62829[CompoundID] OR 162381[CompoundID] OR 517202[CompoundI
D] OR 6433353[CompoundID] OR 2730[CompoundID] OR 5372405[CompoundID] OR 36081[CompoundID] OR 3120[CompoundID] OR 3017[CompoundID] OR 2969[CompoundID] OR 18827[CompoundID] OR 19518[CompoundID] OR 19658
[CompoundID] OR 38283[CompoundID] OR 2758[CompoundID] OR 10112[CompoundID] OR 10340[CompoundID] OR 712[CompoundID] OR 5794[CompoundID] OR 3347[CompoundID] OR 104150[CompoundID] OR 2912[CompoundID] OR
2450[CompoundID] OR 40326[CompoundID] OR 40585[CompoundID] OR 517055[CompoundID] OR 10913[CompoundID] OR 108242[CompoundID] OR 62097[CompoundID] OR 41679[CompoundID] OR 54680676[CompoundID] OR 62118[C
ompoundID] OR 753[CompoundID] OR 1030[CompoundID] OR 23673837[CompoundID] OR 54678504[CompoundID] OR 11442[CompoundID] OR 11463[CompoundID] OR 22230[CompoundID] OR 440917[CompoundID] OR 6054[CompoundI
D] OR 43234[CompoundID] OR 22629[CompoundID] OR 3039[CompoundID] OR 2735067[CompoundID] OR 6144[CompoundID] OR 702[CompoundID] OR 284[CompoundID] OR 176[CompoundID] OR 91688[CompoundID] OR 22947[Compo
undID] OR 47445[CompoundID] OR 1711973[CompoundID] OR 243[CompoundID] OR 10342051[CompoundID] OR 5281875[CompoundID] OR 3776[CompoundID] OR 6224[CompoundID] OR 104926[CompoundID] OR 8755[CompoundID] O
R 338[CompoundID] OR 123622[CompoundID] OR 23954[CompoundID] OR 6334[CompoundID] OR 2537[CompoundID] OR 24261[CompoundID] OR 23665760[CompoundID] OR 83975[CompoundID] OR 784[CompoundID] OR 24437[Compo
undID] OR 5360315[CompoundID] OR 311[CompoundID] OR 6549[CompoundID] OR 107689[CompoundID] OR 17100[CompoundID] OR 24976875[CompoundID] OR 6654[CompoundID] OR 71245[CompoundID] OR 6442842[CompoundID]
OR 62334[CompoundID] OR 54698175[CompoundID] OR 6328154[CompoundID] OR 24762[CompoundID] OR 440950[CompoundID] OR 7017[CompoundID] OR 5281873[CompoundID] OR 323[CompoundID] OR 5281167[CompoundID] OR 7
175[CompoundID] OR 7292[CompoundID] OR 6335613[CompoundID] OR 7456[CompoundID] OR 7462[CompoundID]

> <resultIndex>
158

> <resultRange>
1-176

> <textQuery>
7628,244,25059,7618,7641,5053,637511,7714,7762,25429,8842,7794,637566,7843,174,7870,86102,7888,7896,1140,8042,8058,8078,8087,8117,8133,115224,8175,8194,445639,4944,8294,93541,8360,8363,656612,125098,3
352,3303913,64805,31200,1712058,31236,31239,31265,31266,31276,6950273,518659,14896,14798,14829,14830,8635,23266,4284,8693,22311,8759,8785,2723810,8857,3893,9936739,516892,5430,9017,15433,107720,955208
1,164825,10275455,16666,9839306,5282227,23676745,32881,91581,39800,33344,15962220,33528,5365075,62829,162381,517202,6433353,2730,5372405,36081,3120,3017,2969,18827,19518,19658,38283,2758,10112,10340,7
12,5794,3347,104150,2912,2450,40326,40585,517055,10913,108242,62097,41679,54680676,62118,753,1030,23673837,54678504,11442,11463,22230,440917,6054,43234,22629,3039,2735067,6144,702,284,176,91688,22947,
47445,1711973,243,10342051,5281875,3776,6224,104926,8755,338,123622,23954,6334,2537,24261,23665760,83975,784,24437,5360315,311,6549,107689,17100,24976875,6654,71245,6442842,62334,54698175,6328154,2476
2,440950,7017,5281873,323,5281167,7175,7292,6335613,7456,7462

$$$$
2,758
  SciTegic10191915303D

 29 30  0  0  0  0            999 V2000
   -0.0040    2.3630    0.7110 C   0  0
    0.6290    1.0000    0.4140 C   0  0
    2.0700    0.9790    0.9340 C   0  0
    0.5470    0.6330   -1.0960 C   0  0  3  0  0  0
    1.1230   -0.7850   -1.2910 C   0  0
    0.3890   -1.7560   -0.3420 C   0  0
   -0.7270   -1.0140    0.4340 C   0  0  3  0  0  0
   -1.4470   -1.9240    1.4320 C   0  0
   -1.7030   -0.3440   -0.5650 C   0  0
   -0.9380    0.6000   -1.5160 C   0  0
   -0.1000    0.0330    1.1840 O   0  0
    0.1440    2.6620    1.7480 H   0  0
   -1.0760    2.3400    0.5190 H   0  0
    0.4320    3.1350    0.0760 H   0  0
    2.1150    1.3460    1.9590 H   0  0
    2.4770   -0.0310    0.9000 H   0  0
    2.7090    1.6150    0.3240 H   0  0
    1.0960    1.3500   -1.7030 H   0  0
    2.1930   -0.7970   -1.0880 H   0  0
    1.0040   -1.1020   -2.3260 H   0  0
    1.1000   -2.2090    0.3530 H   0  0
   -0.0410   -2.5780   -0.9160 H   0  0
   -2.2030   -1.3830    2.0020 H   0  0
   -0.7400   -2.3560    2.1410 H   0  0
   -1.9450   -2.7440    0.9140 H   0  0
   -2.2270   -1.1050   -1.1450 H   0  0
   -2.4750    0.2130   -0.0270 H   0  0
   -1.3690    1.6000   -1.4830 H   0  0
   -1.0310    0.2600   -2.5470 H   0  0
  1  2  1  0
  2  3  1  0
  2  4  1  0
  2 11  1  0
  4  5  1  0
  4 10  1  0
  5  6  1  0
  6  7  1  0
  7  8  1  0
  7  9  1  0
  7 11  1  0
  9 10  1  0
  1 12  1  0
  1 13  1  0
  1 14  1  0
  3 15  1  0
  3 16  1  0
  3 17  1  0
  4 18  1  0
  5 19  1  0
  5 20  1  0
  6 21  1  0
  6 22  1  0
  8 23  1  0
  8 24  1  0
  8 25  1  0
  9 26  1  0
  9 27  1  0
 10 28  1  0
 10 29  1  0
M  END
> <Name>
2,758

> <OBJECTID>
9223372702578049035

> <ActiveAidCount>
13

> <AtomChiralCount>
0

> <AtomChiralDefCount>
0

> <AtomChiralUndefCount>
0

> <BondChiralCount>
0

> <BondChiralDefCount>
0

> <BondChiralUndefCount>
0

> <CID>
2758

> <CanonicalSmiles>
CC1(C2CCC(O1)(CC2)C)C

> <Complexity>
164

> <CovalentUnitCount>
1

> <CreateDate>
2004/09/16 00:00

> <HeavyAtomCount>
11

> <HydrogenBondAcceptorCount>
1

> <HydrogenBondDonorCount>
0

> <IUPACName>
1,3,3-trimethyl-2-oxabicyclo[2.2.2]octane

> <InChI>
InChI=1S/C10H18O/c1-9(2)8-4-6-10(3,11-9)7-5-8/h8H,4-7H2,1-3H3

> <InChIKey>
WEEGYLXZBRQIMU-UHFFFAOYSA-N

> <IsomericSmiles>
CC1(C2CCC(O1)(CC2)C)C

> <IsotopeAtomCount>
0

> <MeSHHeading>
Eucalyptol

> <MeSHTerm>
1,8 Epoxy p menthane
eucalyptol
cineole
1,8 Cineol
1,8-cineole
1,8 Cineole
1,8-Epoxy-p-menthane
Soledum
1,8-cineol

> <MolecularFormula>
C10H18O

> <MolecularWeight>
154.25

> <PharmAction>
Chemical Actions and Uses
Insect Repellents
Flavoring Agents
Food Additives
Pharmaceutic Aids
Toxic Actions
Antitussive Agents
Food Ingredients
Therapeutic Uses
Biomedical and Dental Materials
Mouthwashes
Protective Agents
Pharmacologic Actions
Cosmetics
Central Nervous System Agents
Physiological Effects of Drugs
Respiratory System Agents
Solvents
Specialty Uses of Chemicals
Agrochemicals
Anti-Infective Agents
Pesticides
Pharmaceutical Preparations

> <RotatableBondCount>
0

> <Smiles>
CC1(OC(CCC12)(C)CC2)C

> <SourceCategory>
Chemical Vendors
Legacy Depositors
Research and Development
Curation Efforts
Governmental Organizations
NIH Initiatives
Subscription Services
Journal Publishers

> <Synonym>
Eucalyptol
cineole
1,8-Cineole
470-82-6
1,8-Cineol
Cajeputol
1,8-Epoxy-p-menthane
Eucalyptole
Zineol
Eucapur
Terpan
p-Cineole
1,8-Oxido-p-menthane
1,3,3-Trimethyl-2-oxabicyclo[2.2.2]octane
Eukalyptol
CINEOL
Cucalyptol
Eukalyptol [Czech]
Soledum
Eucalyptol (natural)
Zedoary oil
EUCALYPTUS OIL
p-Menthane, 1,8-epoxy-
Cineole (VAN)
2-Oxabicyclo[2.2.2]octane, 1,3,3-trimethyl-
Eucalyptol [USAN]
NCI-C56575
UNII-RV6J6604TK
FEMA No. 2465
2-Oxabicyclo(2.2.2)octane, 1,3,3-trimethyl-
NSC 6171
MFCD00167977
1,3,3-Trimethyl-2-oxabicyclo(2.2.2)octane
2-Oxa-1,3,3-trimethylbicyclo(2.2.2)octane
Eucalyptol (USAN)
CCRIS 3727
HSDB 991
Cineole (Eucalyptol)
NSC6171
2,2,4-trimethyl-3-oxabicyclo[2.2.2]octane
2-Oxa-1,3,3-trimethylbicyclo[2.2.2]octane
EINECS 207-431-5
Cineolum
BIDD:ER0481
AI3-00578
RV6J6604TK
CNL
4,7,7-trimethyl-8-oxabicyclo[2.2.2]octane
CHEBI:27961
WEEGYLXZBRQIMU-UHFFFAOYSA-N
NCGC00091666-01
NCGC00091666-04
WLN: T66 A B AOTJ B1 B1 F1
DSSTox_CID_616
1,8-Cineole, 99%
DSSTox_RID_75692
DSSTox_GSID_20616
W-106080
(1s,4s)-1,3,3-trimethyl-2-oxabicyclo[2.2.2]octane
Eucalyptol 1000 microg/mL in Methanol
CAS-470-82-6
SMR000471853
Eucalyptol [USAN:USP]
8000-48-4
Eucalyptol,(S)
1.8-cineole
Eucalyptol, 99%
Eucalyptol, Ph Helv
p-Menthane,8-epoxy-
1,8-Cineol;
AC1L1EEE
Spectrum2_000221
Spectrum3_000683
Spectrum4_001747
Spectrum5_000704
1,8-cineol (eucalyptol)
bmse000523
EC 207-431-5
Casella-med brand of cineole
SCHEMBL19622
SCHEMBL41020
BSPBio_002405
KBioGR_002194
MLS001050089
MLS001066338
DivK1c_000333
SPECTRUM1500294
SPBio_000261
Eucalyptol, analytical standard
CHEMBL485259
GTPL2464
CHEMBL1231862
CHEMBL1397305
DTXSID4020616
SCHEMBL13554591
SCHEMBL17836873
CTK6B3326
HMS501A15
KBio1_000333
KBio3_001625
NINDS_000333
HMS2271P04
Pharmakon1600-01500294
ZINC967566
p-Menthane, 1,8-epoxy- (VAN)
HY-N0066
NSC-6171
Tox21_111161
Tox21_202090
Tox21_302902
5750AF
CCG-36080
LS-128
NSC760388
SBB057535
Acylated oxime isatin derivative, 19
AKOS015903223
AKOS016034339
AKOS037514637
Tox21_111161_1
CS-8146
DB03852
FCH1679459
LMPR0102090019
NSC-760388
IDI1_000333
Eucalyptol, tested according to Ph.Eur.
NCGC00091666-02
NCGC00091666-03
NCGC00091666-05
NCGC00095774-01
NCGC00178671-01
NCGC00256479-01
NCGC00259639-01
AC-20234
AN-23469
Eucalyptol, natural, >=99%, FCC, FG
NCI60_005108
SC-47256
ST096004
1,3-Trimethyl-2-oxabicyclo[2.2.2]octane
2-Oxa-1,3-trimethylbicyclo[2.2.2]octane
TR-017465
2-Oxabicyclo[2.2.2]octane,3,3-trimethyl-
FT-0607033
FT-0626369
1,3,3-Trimethyl-2-oxabicyclo[2,2,2]octan
1,3,3-trimethyl-2-oxabicyclo[2,2,2]octane
1,3,3-trimethyl-2-oxabicyclo[2.2.2]octan
A15662
A19469
C09844
D04115
{1,3,3-Trimethyl-2-oxabicyclo[2.2.2]octane}
{2-Oxa-1,3,3-trimethylbicyclo[2.2.2]octane}
AB01563262_01
SR-01000763816
{2-Oxabicyclo[2.2.2]octane,} 1,3,3-trimethyl-
SR-01000763816-2
1,8-Cineole, primary pharmaceutical reference standard
I14-18994
Cineole, European Pharmacopoeia (EP) Reference Standard
Eucalyptol, certified reference material, TraceCERT(R)
F0001-1260
1,3,3-trimethyl-2-oxabicyclo[2.2.2]octane (ACD/Name 4.0)
Eucalyptol, United States Pharmacopeia (USP) Reference Standard
Eucalyptol (cineole), Pharmaceutical Secondary Standard; Certified Reference Material
InChI=1/C10H18O/c1-9(2)8-4-6-10(3,11-9)7-5-8/h8H,4-7H2,1-3H

> <TPSA>
9.2

> <TotalAidCount>
1232

> <TotalFormalCharge>
0

> <XLogP>
2.5

> <database>
PubChem Compound

> <matchingCount>
176

> <primaryID>
2758

> <queryTranslation>
7628[CompoundID] OR 244[CompoundID] OR 25059[CompoundID] OR 7618[CompoundID] OR 7641[CompoundID] OR 5053[CompoundID] OR 637511[CompoundID] OR 7714[CompoundID] OR 7762[CompoundID] OR 25429[CompoundID]
OR 8842[CompoundID] OR 7794[CompoundID] OR 637566[CompoundID] OR 7843[CompoundID] OR 174[CompoundID] OR 7870[CompoundID] OR 86102[CompoundID] OR 7888[CompoundID] OR 7896[CompoundID] OR 1140[CompoundID
] OR 8042[CompoundID] OR 8058[CompoundID] OR 8078[CompoundID] OR 8087[CompoundID] OR 8117[CompoundID] OR 8133[CompoundID] OR 115224[CompoundID] OR 8175[CompoundID] OR 8194[CompoundID] OR 445639[Compou
ndID] OR 4944[CompoundID] OR 8294[CompoundID] OR 93541[CompoundID] OR 8360[CompoundID] OR 8363[CompoundID] OR 656612[CompoundID] OR 125098[CompoundID] OR 3352[CompoundID] OR 3303913[CompoundID] OR 648
05[CompoundID] OR 31200[CompoundID] OR 1712058[CompoundID] OR 31236[CompoundID] OR 31239[CompoundID] OR 31265[CompoundID] OR 31266[CompoundID] OR 31276[CompoundID] OR 6950273[CompoundID] OR 518659[Com
poundID] OR 14896[CompoundID] OR 14798[CompoundID] OR 14829[CompoundID] OR 14830[CompoundID] OR 8635[CompoundID] OR 23266[CompoundID] OR 4284[CompoundID] OR 8693[CompoundID] OR 22311[CompoundID] OR 87
59[CompoundID] OR 8785[CompoundID] OR 2723810[CompoundID] OR 8857[CompoundID] OR 3893[CompoundID] OR 9936739[CompoundID] OR 516892[CompoundID] OR 5430[CompoundID] OR 9017[CompoundID] OR 15433[Compound
ID] OR 107720[CompoundID] OR 9552081[CompoundID] OR 164825[CompoundID] OR 10275455[CompoundID] OR 16666[CompoundID] OR 9839306[CompoundID] OR 5282227[CompoundID] OR 23676745[CompoundID] OR 32881[Compo
undID] OR 91581[CompoundID] OR 39800[CompoundID] OR 33344[CompoundID] OR 15962220[CompoundID] OR 33528[CompoundID] OR 5365075[CompoundID] OR 62829[CompoundID] OR 162381[CompoundID] OR 517202[CompoundI
D] OR 6433353[CompoundID] OR 2730[CompoundID] OR 5372405[CompoundID] OR 36081[CompoundID] OR 3120[CompoundID] OR 3017[CompoundID] OR 2969[CompoundID] OR 18827[CompoundID] OR 19518[CompoundID] OR 19658
[CompoundID] OR 38283[CompoundID] OR 2758[CompoundID] OR 10112[CompoundID] OR 10340[CompoundID] OR 712[CompoundID] OR 5794[CompoundID] OR 3347[CompoundID] OR 104150[CompoundID] OR 2912[CompoundID] OR
2450[CompoundID] OR 40326[CompoundID] OR 40585[CompoundID] OR 517055[CompoundID] OR 10913[CompoundID] OR 108242[CompoundID] OR 62097[CompoundID] OR 41679[CompoundID] OR 54680676[CompoundID] OR 62118[C
ompoundID] OR 753[CompoundID] OR 1030[CompoundID] OR 23673837[CompoundID] OR 54678504[CompoundID] OR 11442[CompoundID] OR 11463[CompoundID] OR 22230[CompoundID] OR 440917[CompoundID] OR 6054[CompoundI
D] OR 43234[CompoundID] OR 22629[CompoundID] OR 3039[CompoundID] OR 2735067[CompoundID] OR 6144[CompoundID] OR 702[CompoundID] OR 284[CompoundID] OR 176[CompoundID] OR 91688[CompoundID] OR 22947[Compo
undID] OR 47445[CompoundID] OR 1711973[CompoundID] OR 243[CompoundID] OR 10342051[CompoundID] OR 5281875[CompoundID] OR 3776[CompoundID] OR 6224[CompoundID] OR 104926[CompoundID] OR 8755[CompoundID] O
R 338[CompoundID] OR 123622[CompoundID] OR 23954[CompoundID] OR 6334[CompoundID] OR 2537[CompoundID] OR 24261[CompoundID] OR 23665760[CompoundID] OR 83975[CompoundID] OR 784[CompoundID] OR 24437[Compo
undID] OR 5360315[CompoundID] OR 311[CompoundID] OR 6549[CompoundID] OR 107689[CompoundID] OR 17100[CompoundID] OR 24976875[CompoundID] OR 6654[CompoundID] OR 71245[CompoundID] OR 6442842[CompoundID]
OR 62334[CompoundID] OR 54698175[CompoundID] OR 6328154[CompoundID] OR 24762[CompoundID] OR 440950[CompoundID] OR 7017[CompoundID] OR 5281873[CompoundID] OR 323[CompoundID] OR 5281167[CompoundID] OR 7
175[CompoundID] OR 7292[CompoundID] OR 6335613[CompoundID] OR 7456[CompoundID] OR 7462[CompoundID]

> <resultIndex>
159

> <resultRange>
1-176

> <textQuery>
7628,244,25059,7618,7641,5053,637511,7714,7762,25429,8842,7794,637566,7843,174,7870,86102,7888,7896,1140,8042,8058,8078,8087,8117,8133,115224,8175,8194,445639,4944,8294,93541,8360,8363,656612,125098,3
352,3303913,64805,31200,1712058,31236,31239,31265,31266,31276,6950273,518659,14896,14798,14829,14830,8635,23266,4284,8693,22311,8759,8785,2723810,8857,3893,9936739,516892,5430,9017,15433,107720,955208
1,164825,10275455,16666,9839306,5282227,23676745,32881,91581,39800,33344,15962220,33528,5365075,62829,162381,517202,6433353,2730,5372405,36081,3120,3017,2969,18827,19518,19658,38283,2758,10112,10340,7
12,5794,3347,104150,2912,2450,40326,40585,517055,10913,108242,62097,41679,54680676,62118,753,1030,23673837,54678504,11442,11463,22230,440917,6054,43234,22629,3039,2735067,6144,702,284,176,91688,22947,
47445,1711973,243,10342051,5281875,3776,6224,104926,8755,338,123622,23954,6334,2537,24261,23665760,83975,784,24437,5360315,311,6549,107689,17100,24976875,6654,71245,6442842,62334,54698175,6328154,2476
2,440950,7017,5281873,323,5281167,7175,7292,6335613,7456,7462

$$$$
2,730
  SciTegic10191915303D

 29 29  0  0  0  0            999 V2000
    0.5270    1.9240   -0.8670 C   0  0
   -0.8180    1.7070   -0.8120 N   0  0
    0.7050   -0.4840   -0.3690 P   0  0
    1.3380    0.9020   -0.6760 O   0  0
   -1.6970    2.7320   -1.0040 C   0  0
    1.0410    3.2150   -1.1210 C   0  0
    0.1510    4.2850   -1.3180 C   0  0
   -1.2360    4.0490   -1.2620 C   0  0
   -0.0270   -0.9410   -1.9470 S   0  0
    1.8300   -1.5430   -0.1970 O   0  0
   -0.1290   -0.3970    0.9410 O   0  0
   -3.3710    2.3460   -0.9160 Cl  0  0
    2.7350    3.4940   -1.1910 Cl  0  0
   -2.3050    5.3770   -1.5080 Cl  0  0
    1.3850   -2.8200    0.2320 C   0  0
   -1.3790   -1.0660    0.8990 C   0  0
    2.5690   -3.7890    0.2680 C   0  0
   -2.0840   -0.9180    2.2460 C   0  0
    0.5290    5.2790   -1.5140 H   0  0
    0.6230   -3.1700   -0.4650 H   0  0
    0.9450   -2.7130    1.2250 H   0  0
   -1.9760   -0.6230    0.1000 H   0  0
   -1.1970   -2.1170    0.6720 H   0  0
    2.2700   -4.7850    0.5940 H   0  0
    3.3380   -3.4300    0.9530 H   0  0
    3.0200   -3.8830   -0.7190 H   0  0
   -3.0530   -1.4180    2.2310 H   0  0
   -1.4780   -1.3440    3.0470 H   0  0
   -2.2560    0.1330    2.4790 H   0  0
  1  2  2  0
  1  4  1  0
  1  6  1  0
  2  5  1  0
  3  4  1  0
  3  9  2  0
  3 10  1  0
  3 11  1  0
  5 12  1  0
  5  8  2  0
  6  7  2  0
  6 13  1  0
  7  8  1  0
  8 14  1  0
 10 15  1  0
 11 16  1  0
 15 17  1  0
 16 18  1  0
  7 19  1  0
 15 20  1  0
 15 21  1  0
 16 22  1  0
 16 23  1  0
 17 24  1  0
 17 25  1  0
 17 26  1  0
 18 27  1  0
 18 28  1  0
 18 29  1  0
M  END
> <Name>
2,730

> <OBJECTID>
9223372706873016331

> <ActiveAidCount>
66

> <AtomChiralCount>
0

> <AtomChiralDefCount>
0

> <AtomChiralUndefCount>
0

> <BondChiralCount>
0

> <BondChiralDefCount>
0

> <BondChiralUndefCount>
0

> <CID>
2730

> <CanonicalSmiles>
CCOP(=S)(OCC)OC1=NC(=C(C=C1Cl)Cl)Cl

> <Complexity>
303

> <CovalentUnitCount>
1

> <CreateDate>
2005/03/25 00:00

> <HeavyAtomCount>
18

> <HydrogenBondAcceptorCount>
5

> <HydrogenBondDonorCount>
0

> <IUPACName>
diethoxy-sulfanylidene-(3,5,6-trichloropyridin-2-yl)oxy-lambda5-phosphane

> <InChI>
InChI=1S/C9H11Cl3NO3PS/c1-3-14-17(18,15-4-2)16-9-7(11)5-6(10)8(12)13-9/h5H,3-4H2,1-2H3

> <InChIKey>
SBPBAQFWLVIOKP-UHFFFAOYSA-N

> <IsomericSmiles>
CCOP(=S)(OCC)OC1=NC(=C(C=C1Cl)Cl)Cl

> <IsotopeAtomCount>
0

> <MeSHHeading>
Chlorpyrifos

> <MeSHTerm>
Lorsban
Dursban
Chlorpyrifos

> <MolecularFormula>
C9H11Cl3NO3PS

> <MolecularWeight>
350.6

> <PharmAction>
Chemical Actions and Uses
Agrochemicals
Enzyme Inhibitors
Neurotransmitter Agents
Cholinergic Agents
Cholinesterase Inhibitors
Molecular Mechanisms of Pharmacological Action
Pharmacologic Actions
Insecticides
Pesticides
Specialty Uses of Chemicals
Toxic Actions
Physiological Effects of Drugs

> <RotatableBondCount>
6

> <Smiles>
c1(c(Cl)cc(Cl)c(Cl)n1)OP(OCC)(OCC)=S

> <SourceCategory>
Legacy Depositors
Chemical Vendors
Research and Development
Curation Efforts
Governmental Organizations
NIH Initiatives
Subscription Services
Journal Publishers

> <Synonym>
chlorpyrifos
Chlorpyriphos
2921-88-2
Dursban
Lorsban
Trichlorpyrphos
Chlorpyrifos-ethyl
Brodan
Coroban
Pyrinex
Killmaster
Bonidel
Danusban
Geodinfos
Lentrek
Piridane
Spannit
Stipend
Tafaban
Durmet
Equity
Terial
Zidil
Suscon blue
Suscon green
suSCon
Dursban F
Dursban R
Lock-On
Dursban 4E
Chlorpyriphos-ethyl
Dowco 179
Ethyl chlorpyriphos
Dursban 10CR
Chlorpyrifos (Dursban)
Phosphorothioic acid, O,O-diethyl O-(3,5,6-trichloro-2-pyridinyl) ester
Detmol U.A.
Chloropyrifos
Clorpyrifos
Dhanusban
Grofo
Detmol ua
Chlorpyrifos ethyl
Radar (fungicide)
Dursban 44
Lorsban 50SL
Empire 20
Terial 40L
Chlorpyrifos [BAN]
O,O-Diethyl O-3,5,6-trichloro-2-pyridyl phosphorothioate
Chloropyriphos
Chlorpyrofos
Chlorpyrophos
Pageant
Silrifos
Caswell No. 219AA
m-Chlorpyrifos
XRM 429
C9H11Cl3NO3PS
OMS-0971
XRM 5160
Dursban 2E
Chlorpyriphos [ISO-French]
UNII-JCS58I644W
ENT 27311
CCRIS 7144
HSDB 389
Chlorpyrifos [ANSI:BSI:ISO]
EINECS 220-864-4
O,O-Diethyl O-(3,5,6-trichloro-2-pyridinyl)phosphorothioate
EPA Pesticide Chemical Code 059101
BRN 1545756
Phosphorothioic acid, O,O-diethyl O-(3,5,6-trichloro-2-pyridyl) ester
AI3-27311
MLS001065609
JCS58I644W
O,O-Diaethyl-O-3,5,6-trichlor-2-pyridylmonothiophosphat
O,O-diethyl O-(3,5,6-trichloropyridin-2-yl) thiophosphate
CHEBI:34631
SBPBAQFWLVIOKP-UHFFFAOYSA-N
2-Pyridinol, 3,5,6-trichloro-, O-ester with O,O-diethyl phosphorothioate
Chlorpyrifos (BAN)
O,O-Diethyl O-(3,5,6-trichloro-2-pyridyl) phsophorothioate
SMR000568474
diethoxy-sulfanylidene-(3,5,6-trichloropyridin-2-yl)oxyphosphorane
DSSTox_CID_458
O,O-Diaethyl-O-3,5,6-trichlor-2-pyridylmonothiophosphat [German]
DSSTox_RID_75603
DSSTox_GSID_20458
o,o-Diethyl-o-(3,5,6-trichloro-2-pyridyl)phosphorothioate
O,O-Diethyl O-(3,5,6-Trichloro-2-pyridyl) phosphorothioate
O,O-Diethyl-O-(3,5,6-trichloro-2-pyridyl)phosphorothiolate
O,O-diethyl O-(3,5,6-trichloropyridin-2-yl) phosphorothioate
diethoxy-sulfanylidene-[(3,5,6-trichloro-2-pyridinyl)oxy]phosphorane
CAS-2921-88-2
pridane
Chlorpyritos
Affront
Paqeann
Piridann
Empirn
Eraden
Scoun
Detmol Un
diethoxy-sulfanylidene-(3,5,6-trichloropyridin-2-yl)oxy-?^{5}-phosphane
detmol u. a
Detmol U.A
Chlorpyrifos solution
Stipend and Tricel.
Zodiac (TN)
Chloropyrifos solution
Dowco 179, Dursban
Spectrum_001897
SpecPlus_000518
Spectrum2_001230
Spectrum3_000849
Spectrum4_000689
Spectrum5_002014
C7H7Cl3NO3PS
AC1L1EC5
cid_2730
Dursban, analytical standard
BIDD:PXR0044
SCHEMBL21680
BSPBio_002437
KBioGR_001157
KBioSS_002427
SPECTRUM330058
DivK1c_006614
SPBio_001080
AC1Q38B6
CHEMBL463210
DTXSID4020458
BDBM74063
CTK8E8187
KBio1_001558
KBio2_002421
KBio2_004989
KBio2_007557
KBio3_001937
SBPBAQFWLVIOKP-UHFFFAOYSA-
OMS 971
HMS3039C03
HMS3264O03
Pharmakon1600-00330058
ZINC608250
Tox21_202383
Tox21_300148
AC-993
CCG-39144
ENT-27311
MFCD00041800
NSC755891
AKOS015891656
Phosphorothioic acid O,O-diethyl O-(3,5,6-trichloro-2-pyridinyl) ester
Chlorpyrifos 100 microg/mL in Acetone
ENT 27,311
KS-5372
LS-1137
NSC-755891
Chlorpyrifos 1000 microg/mL in Toluene
NCGC00091472-01
NCGC00091472-02
NCGC00091472-03
NCGC00091472-04
NCGC00091472-05
NCGC00091472-06
NCGC00091472-07
NCGC00091472-08
NCGC00091472-09
NCGC00253974-01
NCGC00259932-01
AN-15356
BC220240
CC-25729
Chlorpyrifos 10 microg/mL in Cyclohexane
O799
SC-47023
ZB014607
Chlorpyrifos 100 microg/mL in Cyclohexane
SBI-0052543.P002
Chlorpyrifos 100 microg/mL in Acetonitrile
TR-036379
FT-0602970
C14322
D07688
M-1133
26848-EP2274983A1
26848-EP2275422A1
26848-EP2280002A1
26848-EP2280009A1
26848-EP2292608A1
26848-EP2305662A1
26848-EP2308857A1
26848-EP2308858A1
26848-EP2311816A1
26848-EP2311817A1
26848-EP2314583A1
88579-EP2298076A1
88579-EP2298077A1
88579-EP2301353A1
88579-EP2305031A1
88579-EP2305034A1
88579-EP2305035A1
88579-EP2305662A1
AB00053051_06
Chlorpyrifos, PESTANAL(R), analytical standard
921C882
A819822
C-20634
SR-01000854727
I02-0698
I06-1337
J-017440
SR-01000854727-2
BRD-K08303368-001-02-7
BRD-K08303368-001-06-8
Chlorpyrifos, certified reference material, TraceCERT(R)
Diethyl O-(3,5,6-trichloro-2-pyridyl) phosphorothioate
O,O-Diethyl O-3,5,6-trichloro-2-pyridylphosphorothioate
diethoxy-thioxo-[(3,5,6-trichloro-2-pyridyl)oxy]phosphorane
O,O-Diethyl o-(3,5,6-trichloro-2-pyridinyl) thiophosphate #
diethoxy-sulfanylidene-(3,5,6-trichloropyridin-2-yl)oxy--phosphane
diethoxy-thioxo-[(3,5,6-trichloro-2-pyridyl)oxy]-$l^{5}-phosphane
ethyl 3,5,6-trichloropyridin-2-yl ethoxy(sulfanylidene)phosphonite
O,O-diethyl O-(3,5,6-trichloro-2-pyridinyl) phosphorothioic acid
O,O-DIETHYL O-3,5,6-TRICHLOROPYRIDIN-2-YL PHOSPHOROTHIOATE
diethoxy-sulfanylidene-[3,5,6-tris(chloranyl)pyridin-2-yl]oxy--phosphane
Phosphorothioic Acid O,O-Diethyl O-(3,5,6-Trichloro-2-pyridinyl)ester
Chlorpyrifos solution, 100 mug/mL in acetonitrile, PESTANAL(R), analytical standard
diethoxy-sulfanylidene-[3,5,6-tris(chloranyl)pyridin-2-yl]oxy-$l^{5}-phosphane
Chlorpyrifos solution, certified reference material, TraceCERT(R), 1000 mug/mL in methyl tert-butyl ether, ampule of 1 mL
InChI=1/C9H11Cl3NO3PS/c1-3-14-17(18,15-4-2)16-9-7(11)5-6(10)8(12)13-9/h5H,3-4H2,1-2H3

> <TPSA>
72.7

> <TotalAidCount>
1020

> <TotalFormalCharge>
0

> <XLogP>
5.3

> <database>
PubChem Compound

> <matchingCount>
176

> <primaryID>
2730

> <queryTranslation>
7628[CompoundID] OR 244[CompoundID] OR 25059[CompoundID] OR 7618[CompoundID] OR 7641[CompoundID] OR 5053[CompoundID] OR 637511[CompoundID] OR 7714[CompoundID] OR 7762[CompoundID] OR 25429[CompoundID]
OR 8842[CompoundID] OR 7794[CompoundID] OR 637566[CompoundID] OR 7843[CompoundID] OR 174[CompoundID] OR 7870[CompoundID] OR 86102[CompoundID] OR 7888[CompoundID] OR 7896[CompoundID] OR 1140[CompoundID
] OR 8042[CompoundID] OR 8058[CompoundID] OR 8078[CompoundID] OR 8087[CompoundID] OR 8117[CompoundID] OR 8133[CompoundID] OR 115224[CompoundID] OR 8175[CompoundID] OR 8194[CompoundID] OR 445639[Compou
ndID] OR 4944[CompoundID] OR 8294[CompoundID] OR 93541[CompoundID] OR 8360[CompoundID] OR 8363[CompoundID] OR 656612[CompoundID] OR 125098[CompoundID] OR 3352[CompoundID] OR 3303913[CompoundID] OR 648
05[CompoundID] OR 31200[CompoundID] OR 1712058[CompoundID] OR 31236[CompoundID] OR 31239[CompoundID] OR 31265[CompoundID] OR 31266[CompoundID] OR 31276[CompoundID] OR 6950273[CompoundID] OR 518659[Com
poundID] OR 14896[CompoundID] OR 14798[CompoundID] OR 14829[CompoundID] OR 14830[CompoundID] OR 8635[CompoundID] OR 23266[CompoundID] OR 4284[CompoundID] OR 8693[CompoundID] OR 22311[CompoundID] OR 87
59[CompoundID] OR 8785[CompoundID] OR 2723810[CompoundID] OR 8857[CompoundID] OR 3893[CompoundID] OR 9936739[CompoundID] OR 516892[CompoundID] OR 5430[CompoundID] OR 9017[CompoundID] OR 15433[Compound
ID] OR 107720[CompoundID] OR 9552081[CompoundID] OR 164825[CompoundID] OR 10275455[CompoundID] OR 16666[CompoundID] OR 9839306[CompoundID] OR 5282227[CompoundID] OR 23676745[CompoundID] OR 32881[Compo
undID] OR 91581[CompoundID] OR 39800[CompoundID] OR 33344[CompoundID] OR 15962220[CompoundID] OR 33528[CompoundID] OR 5365075[CompoundID] OR 62829[CompoundID] OR 162381[CompoundID] OR 517202[CompoundI
D] OR 6433353[CompoundID] OR 2730[CompoundID] OR 5372405[CompoundID] OR 36081[CompoundID] OR 3120[CompoundID] OR 3017[CompoundID] OR 2969[CompoundID] OR 18827[CompoundID] OR 19518[CompoundID] OR 19658
[CompoundID] OR 38283[CompoundID] OR 2758[CompoundID] OR 10112[CompoundID] OR 10340[CompoundID] OR 712[CompoundID] OR 5794[CompoundID] OR 3347[CompoundID] OR 104150[CompoundID] OR 2912[CompoundID] OR
2450[CompoundID] OR 40326[CompoundID] OR 40585[CompoundID] OR 517055[CompoundID] OR 10913[CompoundID] OR 108242[CompoundID] OR 62097[CompoundID] OR 41679[CompoundID] OR 54680676[CompoundID] OR 62118[C
ompoundID] OR 753[CompoundID] OR 1030[CompoundID] OR 23673837[CompoundID] OR 54678504[CompoundID] OR 11442[CompoundID] OR 11463[CompoundID] OR 22230[CompoundID] OR 440917[CompoundID] OR 6054[CompoundI
D] OR 43234[CompoundID] OR 22629[CompoundID] OR 3039[CompoundID] OR 2735067[CompoundID] OR 6144[CompoundID] OR 702[CompoundID] OR 284[CompoundID] OR 176[CompoundID] OR 91688[CompoundID] OR 22947[Compo
undID] OR 47445[CompoundID] OR 1711973[CompoundID] OR 243[CompoundID] OR 10342051[CompoundID] OR 5281875[CompoundID] OR 3776[CompoundID] OR 6224[CompoundID] OR 104926[CompoundID] OR 8755[CompoundID] O
R 338[CompoundID] OR 123622[CompoundID] OR 23954[CompoundID] OR 6334[CompoundID] OR 2537[CompoundID] OR 24261[CompoundID] OR 23665760[CompoundID] OR 83975[CompoundID] OR 784[CompoundID] OR 24437[Compo
undID] OR 5360315[CompoundID] OR 311[CompoundID] OR 6549[CompoundID] OR 107689[CompoundID] OR 17100[CompoundID] OR 24976875[CompoundID] OR 6654[CompoundID] OR 71245[CompoundID] OR 6442842[CompoundID]
OR 62334[CompoundID] OR 54698175[CompoundID] OR 6328154[CompoundID] OR 24762[CompoundID] OR 440950[CompoundID] OR 7017[CompoundID] OR 5281873[CompoundID] OR 323[CompoundID] OR 5281167[CompoundID] OR 7
175[CompoundID] OR 7292[CompoundID] OR 6335613[CompoundID] OR 7456[CompoundID] OR 7462[CompoundID]

> <resultIndex>
160

> <resultRange>
1-176

> <textQuery>
7628,244,25059,7618,7641,5053,637511,7714,7762,25429,8842,7794,637566,7843,174,7870,86102,7888,7896,1140,8042,8058,8078,8087,8117,8133,115224,8175,8194,445639,4944,8294,93541,8360,8363,656612,125098,3
352,3303913,64805,31200,1712058,31236,31239,31265,31266,31276,6950273,518659,14896,14798,14829,14830,8635,23266,4284,8693,22311,8759,8785,2723810,8857,3893,9936739,516892,5430,9017,15433,107720,955208
1,164825,10275455,16666,9839306,5282227,23676745,32881,91581,39800,33344,15962220,33528,5365075,62829,162381,517202,6433353,2730,5372405,36081,3120,3017,2969,18827,19518,19658,38283,2758,10112,10340,7
12,5794,3347,104150,2912,2450,40326,40585,517055,10913,108242,62097,41679,54680676,62118,753,1030,23673837,54678504,11442,11463,22230,440917,6054,43234,22629,3039,2735067,6144,702,284,176,91688,22947,
47445,1711973,243,10342051,5281875,3776,6224,104926,8755,338,123622,23954,6334,2537,24261,23665760,83975,784,24437,5360315,311,6549,107689,17100,24976875,6654,71245,6442842,62334,54698175,6328154,2476
2,440950,7017,5281873,323,5281167,7175,7292,6335613,7456,7462

$$$$
2,537
  SciTegic10191915303D

 27 28  0  0  1  0            999 V2000
    1.7660    1.4340    1.8340 O   0  0
    1.1410    0.5860    1.2400 C   0  0
    1.4200   -0.8850    1.2380 C   0  0
    0.2480   -1.3810    0.3690 C   0  0  3  0  0  0
    0.0960   -0.2910   -0.7130 C   0  0
   -0.0630    0.8010    0.3610 C   0  0  3  0  0  0
   -0.2130    2.2190   -0.1800 C   0  0
   -1.2970    0.2990    1.1290 C   0  0
   -1.0590   -1.2210    1.1660 C   0  0
   -1.1190   -0.4860   -1.6270 C   0  0
    1.3550   -0.1270   -1.5660 C   0  0
    1.4080   -1.2950    2.2380 H   0  0
    2.3790   -1.0880    0.7870 H   0  0
    0.3940   -2.3810   -0.0140 H   0  0
    0.6560    2.5250   -0.7620 H   0  0
   -0.3360    2.9320    0.6350 H   0  0
   -1.0880    2.2950   -0.8240 H   0  0
   -2.2130    0.5310    0.6050 H   0  0
   -1.3670    0.7270    2.1190 H   0  0
   -1.8750   -1.7480    0.6930 H   0  0
   -0.9690   -1.5960    2.1760 H   0  0
   -0.9900   -1.3360   -2.2950 H   0  0
   -1.2830    0.3980   -2.2420 H   0  0
   -2.0200   -0.6560   -1.0390 H   0  0
    1.6070   -1.0630   -2.0660 H   0  0
    1.2150    0.6500   -2.3160 H   0  0
    2.2070    0.1580   -0.9470 H   0  0
  1  2  2  0
  2  3  1  0
  2  6  1  0
  3  4  1  0
  4  5  1  0
  4  9  1  0
  5  6  1  0
  5 10  1  0
  5 11  1  0
  6  7  1  0
  6  8  1  0
  8  9  1  0
  3 12  1  0
  3 13  1  0
  4 14  1  0
  7 15  1  0
  7 16  1  0
  7 17  1  0
  8 18  1  0
  8 19  1  0
  9 20  1  0
  9 21  1  0
 10 22  1  0
 10 23  1  0
 10 24  1  0
 11 25  1  0
 11 26  1  0
 11 27  1  0
M  END
> <Name>
2,537

> <OBJECTID>
9223372711167983627

> <ActiveAidCount>
4

> <AtomChiralCount>
2

> <AtomChiralDefCount>
0

> <AtomChiralUndefCount>
2

> <BondChiralCount>
0

> <BondChiralDefCount>
0

> <BondChiralUndefCount>
0

> <CID>
2537

> <CanonicalSmiles>
CC1(C2CCC1(C(=O)C2)C)C

> <Complexity>
217

> <CovalentUnitCount>
1

> <CreateDate>
2005/03/25 00:00

> <HeavyAtomCount>
11

> <HydrogenBondAcceptorCount>
1

> <HydrogenBondDonorCount>
0

> <IUPACName>
1,7,7-trimethylbicyclo[2.2.1]heptan-2-one

> <InChI>
InChI=1S/C10H16O/c1-9(2)7-4-5-10(9,3)8(11)6-7/h7H,4-6H2,1-3H3

> <InChIKey>
DSSYKIVIOFKYAU-UHFFFAOYSA-N

> <IsomericSmiles>
CC1(C2CCC1(C(=O)C2)C)C

> <IsotopeAtomCount>
0

> <MeSHHeading>
Camphor

> <MeSHTerm>
Camphor, (+-)-Isomer
Camphor
Camphor, (1S)-Isomer
Camphor, (1R)-Isomer

> <MolecularFormula>
C10H16O

> <MolecularWeight>
152.23

> <PharmAction>
Therapeutic Uses
Pharmacologic Actions
Anti-Infective Agents, Local
Anti-Infective Agents
Chemical Actions and Uses

> <RotatableBondCount>
0

> <Smiles>
O=C1C(CC2)(C)C(C)(C)C2C1

> <SourceCategory>
Chemical Vendors
Legacy Depositors
Research and Development
Curation Efforts
Governmental Organizations
NIH Initiatives
Subscription Services
Journal Publishers

> <Synonym>
camphor
76-22-2
2-Camphanone
2-Bornanone
DL-Camphor
l-(-)-Camphor
(+)-Camphor
(+/-)-Camphor
Bornan-2-one
Root bark oil
1,7,7-Trimethylbicyclo[2.2.1]heptan-2-one
Alphanon
Kampfer
Gum camphor
Spirit of camphor
Formosa camphor
Laurel camphor
2-Camphonone
Matricaria camphor
l-Camphor
(-)-Camphor
Camphor, synthetic
1,7,7-Trimethylnorcamphor
Bornane, 2-oxo-
Formosa
464-49-3
Root bark spirit
2-Keto-1,7,7-trimethylnorcamphane
DL-Bornan-2-one
D-(+)-Camphor
21368-68-3
Norcamphor, 1,7,7-trimethyl-
Camphor, (1R,4R)-(+)-
1,7,7-Trimethylbicyclo[2.2.1]-2-heptanone
Bicyclo[2.2.1]heptan-2-one, 1,7,7-trimethyl-
Alcanfor
Camphor oil
Japanese camphor
Huile de camphre
4,7,7-trimethylbicyclo[2.2.1]heptan-3-one
CHEBI:36773
2-Kamfanon
Camphor USP
d-2-Camphanone
d-2-Bornanone
DSSYKIVIOFKYAU-UHFFFAOYSA-N
Kampfer [German]
Bicyclo(2.2.1)heptan-2-one, 1,7,7-trimethyl-
(-)-Alcanfor
(1R)-Camphor
MFCD00074738
( inverted exclamation markA)-Camphor
2-Kamfanon [Czech]
Caswell No. 155
DL-Camphor, 96%
Camphor, (+)-
Huile de camphre [French]
1,7,7-Trimethylbicyclo(2.2.1)-2-heptanone
1,7,7-Trimethyl-bicyclo(2,2,1)Heptan-2-one
HSDB 37
Camphor Powder
FEMA No. 2230
1,7,7-trimethylnorbornan-2-one
Bicyclo(2.2.1)heptan-2-one, 1,7,7-trimethyl-, (1R)-
Bicyclo[2.2.1]heptan-2-one, 1,7,7-trimethyl-, (1R)-
Bicyclo[2.2.1]heptan-2-one, 1,7,7-trimethyl-, (.+/-.)-
Japan camphor
Camphor, D-
Camphor (USP)
EINECS 200-945-0
EINECS 207-355-2
EINECS 244-350-4
UN2717
EPA Pesticide Chemical Code 015602
(+-)-Camphor
BRN 1907611
BRN 3196099
AI3-01698
AI3-18783
D(+)-Camphor
1,7,7-Trimethylbicyclo(2.2.1)heptan-2-one
Camphor, (1R)-Isomer
Bicyclo(2.2.1)heptane-2-one, 1,7,7-trimethyl-
Bicyclo[2.2.1]heptane-2-one, 1,7,7-trimethyl-
(1R)-(+)-amphor
Camphor, (+-)-Isomer
racemic camphor
MFCD00064149
DL-2-Bornanone
Heet (Salt/Mix)
dextro,laevo-camphor
Sarna (Salt/Mix)
dl-Camphor (JP17)
AC1L1DWH
(.+/-.)-Camphor
(1R)-(+) Camphor
(1S)-1,7,7-Trimethylbicyclo[2.2.1]heptan-2-one
AC1Q2CF0
Camphor Powder - Synthetic
DSSTox_CID_10955
DSSTox_RID_78860
DSSTox_GSID_30955
SCHEMBL16068
Camphor, (.+/-.)-
Bicyclo(2.2.1)heptan-2-one, 1,7,7-trimethyl-, (1theta)-
KSC378C7P
MLS001055495
CHEMBL15768
DivK1c_000724
ACMC-209k77
CAMPHOR, (+-)-
GTPL2422
(1R, 4R)-(+) Camphor
DTXSID5030955
CTK2H8177
HMS502E06
KBio1_000724
Bicyclo[2.2.1]heptan-2-one, 1,7,7-trimethyl-, (1S)-
NINDS_000724
HMS2268A06
HY-N0808
KS-00000V1C
Tox21_200237
ANW-30449
BBL012963
LS-126
s4516
STK803534
AKOS000118728
AKOS022060577
AC-5284
LMPR0102120001
LS-1691
MCULE-2476865084
RTR-037701
TRA0077646
UN 2717
CAS-76-22-2
IDI1_000724
NCGC00090681-05
NCGC00090730-01
NCGC00090730-02
NCGC00257791-01
AC-15523
AN-11174
AN-17868
AN-23465
AN-23893
LS-48718
Q964
SMR000386909
(1R,4R)-1,7,7-trimethylnorbornan-2-one
DB-070734
TR-037701
C1251
CS-0009813
FT-0607017
FT-0607018
4,7,7-trimethyl-3-bicyclo[2.2.1]heptanone
1,7,7-trimethyl-bicyclo[2.2.1]heptan-6-one
C00809
C18369
D00098
1,7,7-Trimethyl-bicyclo[2.2.1]heptan-2-one
Camphor, synthetic [UN2717] [Flammable solid]
A838646
I06-1217
Q-200784
W-109539
W-110530
I14-16513
(+/-)-1,7,7-trimethyl-bicyclo[2,2,1]heptane-2-one
F0001-0763
Z940713494
DL-2-Bornanone 1,7,7-Trimethylbicyclo[2.2.1]heptan-2-one
CAMPHOR (SEE ALSO DL-CAMPHOR (21368-68-3) AND D-CAMPHOR (464-49-3))
DL-CAMPHOR (SEE ALSO D-CAMPHOR (464-49-3) AND DL-CAMPHOR (21368-68-3))

> <TPSA>
17.1

> <TotalAidCount>
808

> <TotalFormalCharge>
0

> <XLogP>
2.2

> <database>
PubChem Compound

> <matchingCount>
176

> <primaryID>
2537

> <queryTranslation>
7628[CompoundID] OR 244[CompoundID] OR 25059[CompoundID] OR 7618[CompoundID] OR 7641[CompoundID] OR 5053[CompoundID] OR 637511[CompoundID] OR 7714[CompoundID] OR 7762[CompoundID] OR 25429[CompoundID]
OR 8842[CompoundID] OR 7794[CompoundID] OR 637566[CompoundID] OR 7843[CompoundID] OR 174[CompoundID] OR 7870[CompoundID] OR 86102[CompoundID] OR 7888[CompoundID] OR 7896[CompoundID] OR 1140[CompoundID
] OR 8042[CompoundID] OR 8058[CompoundID] OR 8078[CompoundID] OR 8087[CompoundID] OR 8117[CompoundID] OR 8133[CompoundID] OR 115224[CompoundID] OR 8175[CompoundID] OR 8194[CompoundID] OR 445639[Compou
ndID] OR 4944[CompoundID] OR 8294[CompoundID] OR 93541[CompoundID] OR 8360[CompoundID] OR 8363[CompoundID] OR 656612[CompoundID] OR 125098[CompoundID] OR 3352[CompoundID] OR 3303913[CompoundID] OR 648
05[CompoundID] OR 31200[CompoundID] OR 1712058[CompoundID] OR 31236[CompoundID] OR 31239[CompoundID] OR 31265[CompoundID] OR 31266[CompoundID] OR 31276[CompoundID] OR 6950273[CompoundID] OR 518659[Com
poundID] OR 14896[CompoundID] OR 14798[CompoundID] OR 14829[CompoundID] OR 14830[CompoundID] OR 8635[CompoundID] OR 23266[CompoundID] OR 4284[CompoundID] OR 8693[CompoundID] OR 22311[CompoundID] OR 87
59[CompoundID] OR 8785[CompoundID] OR 2723810[CompoundID] OR 8857[CompoundID] OR 3893[CompoundID] OR 9936739[CompoundID] OR 516892[CompoundID] OR 5430[CompoundID] OR 9017[CompoundID] OR 15433[Compound
ID] OR 107720[CompoundID] OR 9552081[CompoundID] OR 164825[CompoundID] OR 10275455[CompoundID] OR 16666[CompoundID] OR 9839306[CompoundID] OR 5282227[CompoundID] OR 23676745[CompoundID] OR 32881[Compo
undID] OR 91581[CompoundID] OR 39800[CompoundID] OR 33344[CompoundID] OR 15962220[CompoundID] OR 33528[CompoundID] OR 5365075[CompoundID] OR 62829[CompoundID] OR 162381[CompoundID] OR 517202[CompoundI
D] OR 6433353[CompoundID] OR 2730[CompoundID] OR 5372405[CompoundID] OR 36081[CompoundID] OR 3120[CompoundID] OR 3017[CompoundID] OR 2969[CompoundID] OR 18827[CompoundID] OR 19518[CompoundID] OR 19658
[CompoundID] OR 38283[CompoundID] OR 2758[CompoundID] OR 10112[CompoundID] OR 10340[CompoundID] OR 712[CompoundID] OR 5794[CompoundID] OR 3347[CompoundID] OR 104150[CompoundID] OR 2912[CompoundID] OR
2450[CompoundID] OR 40326[CompoundID] OR 40585[CompoundID] OR 517055[CompoundID] OR 10913[CompoundID] OR 108242[CompoundID] OR 62097[CompoundID] OR 41679[CompoundID] OR 54680676[CompoundID] OR 62118[C
ompoundID] OR 753[CompoundID] OR 1030[CompoundID] OR 23673837[CompoundID] OR 54678504[CompoundID] OR 11442[CompoundID] OR 11463[CompoundID] OR 22230[CompoundID] OR 440917[CompoundID] OR 6054[CompoundI
D] OR 43234[CompoundID] OR 22629[CompoundID] OR 3039[CompoundID] OR 2735067[CompoundID] OR 6144[CompoundID] OR 702[CompoundID] OR 284[CompoundID] OR 176[CompoundID] OR 91688[CompoundID] OR 22947[Compo
undID] OR 47445[CompoundID] OR 1711973[CompoundID] OR 243[CompoundID] OR 10342051[CompoundID] OR 5281875[CompoundID] OR 3776[CompoundID] OR 6224[CompoundID] OR 104926[CompoundID] OR 8755[CompoundID] O
R 338[CompoundID] OR 123622[CompoundID] OR 23954[CompoundID] OR 6334[CompoundID] OR 2537[CompoundID] OR 24261[CompoundID] OR 23665760[CompoundID] OR 83975[CompoundID] OR 784[CompoundID] OR 24437[Compo
undID] OR 5360315[CompoundID] OR 311[CompoundID] OR 6549[CompoundID] OR 107689[CompoundID] OR 17100[CompoundID] OR 24976875[CompoundID] OR 6654[CompoundID] OR 71245[CompoundID] OR 6442842[CompoundID]
OR 62334[CompoundID] OR 54698175[CompoundID] OR 6328154[CompoundID] OR 24762[CompoundID] OR 440950[CompoundID] OR 7017[CompoundID] OR 5281873[CompoundID] OR 323[CompoundID] OR 5281167[CompoundID] OR 7
175[CompoundID] OR 7292[CompoundID] OR 6335613[CompoundID] OR 7456[CompoundID] OR 7462[CompoundID]

> <resultIndex>
161

> <resultRange>
1-176

> <textQuery>
7628,244,25059,7618,7641,5053,637511,7714,7762,25429,8842,7794,637566,7843,174,7870,86102,7888,7896,1140,8042,8058,8078,8087,8117,8133,115224,8175,8194,445639,4944,8294,93541,8360,8363,656612,125098,3
352,3303913,64805,31200,1712058,31236,31239,31265,31266,31276,6950273,518659,14896,14798,14829,14830,8635,23266,4284,8693,22311,8759,8785,2723810,8857,3893,9936739,516892,5430,9017,15433,107720,955208
1,164825,10275455,16666,9839306,5282227,23676745,32881,91581,39800,33344,15962220,33528,5365075,62829,162381,517202,6433353,2730,5372405,36081,3120,3017,2969,18827,19518,19658,38283,2758,10112,10340,7
12,5794,3347,104150,2912,2450,40326,40585,517055,10913,108242,62097,41679,54680676,62118,753,1030,23673837,54678504,11442,11463,22230,440917,6054,43234,22629,3039,2735067,6144,702,284,176,91688,22947,
47445,1711973,243,10342051,5281875,3776,6224,104926,8755,338,123622,23954,6334,2537,24261,23665760,83975,784,24437,5360315,311,6549,107689,17100,24976875,6654,71245,6442842,62334,54698175,6328154,2476
2,440950,7017,5281873,323,5281167,7175,7292,6335613,7456,7462

$$$$
2,450
  SciTegic10191915303D

 15 14  0  0  0  0            999 V2000
    1.4010   -1.2720   -0.3160 O   0  0
   -0.0100   -1.2720   -0.3160 C   0  0
   -0.4880    0.1800   -0.3160 C   0  0
   -2.4120    0.1890   -0.3550 Br  0  0
   -0.0250    0.9530    0.9200 C   0  0
   -0.4260    0.2360    2.0650 O   0  0
    0.0450    0.8510   -1.5170 N   0  3
   -0.0390    0.2400   -2.5800 O   0  5
    0.5220    1.9530   -1.3650 O   0  0
    1.6860   -2.1990   -0.3160 H   0  0
   -0.3480   -1.7890   -1.2130 H   0  0
   -0.3480   -1.7890    0.5820 H   0  0
   -0.4940    1.9370    0.9550 H   0  0
    1.0610    1.0410    0.9360 H   0  0
   -0.1250    0.7400    2.8380 H   0  0
  1  2  1  0
  2  3  1  0
  3  4  1  0
  3  5  1  0
  3  7  1  0
  5  6  1  0
  7  8  1  0
  7  9  2  0
  1 10  1  0
  2 11  1  0
  2 12  1  0
  5 13  1  0
  5 14  1  0
  6 15  1  0
M  CHG  2   7   1   8  -1
M  END
> <Name>
2,450

> <OBJECTID>
9223372715462950923

> <ActiveAidCount>
34

> <AtomChiralCount>
0

> <AtomChiralDefCount>
0

> <AtomChiralUndefCount>
0

> <BondChiralCount>
0

> <BondChiralDefCount>
0

> <BondChiralUndefCount>
0

> <CID>
2450

> <CanonicalSmiles>
C(C(CO)([N+](=O)[O-])Br)O

> <Complexity>
107

> <CovalentUnitCount>
1

> <CreateDate>
2005/03/25 00:00

> <HeavyAtomCount>
9

> <HydrogenBondAcceptorCount>
4

> <HydrogenBondDonorCount>
2

> <IUPACName>
2-bromo-2-nitropropane-1,3-diol

> <InChI>
InChI=1S/C3H6BrNO4/c4-3(1-6,2-7)5(8)9/h6-7H,1-2H2

> <InChIKey>
LVDKZNITIUWNER-UHFFFAOYSA-N

> <IsomericSmiles>
C(C(CO)([N+](=O)[O-])Br)O

> <IsotopeAtomCount>
0

> <MeSHHeading>
bronopol

> <MeSHTerm>
bronosol
bronopol
2-bromo-2-nitro-1,3-propanediol

> <MolecularFormula>
C3H6BrNO4

> <MolecularWeight>
199.99

> <PharmAction>
Specialty Uses of Chemicals
Laboratory Chemicals
Anti-Infective Agents
Indicators and Reagents
Chemical Actions and Uses
Anti-Infective Agents, Local
Therapeutic Uses
Pharmacologic Actions

> <RotatableBondCount>
2

> <Smiles>
OCC([N+](=O)[O-])(CO)Br

> <SourceCategory>
Chemical Vendors
Legacy Depositors
Research and Development
Curation Efforts
Governmental Organizations
NIH Initiatives
Subscription Services
Journal Publishers

> <Synonym>
bronopol
52-51-7
2-Bromo-2-nitro-1,3-propanediol
2-Bromo-2-nitropropane-1,3-diol
Bronosol
Bronocot
Bronidiol
Bronopolu
Bronotak
1,3-Propanediol, 2-bromo-2-nitro-
Onyxide 500
Lexgard bronopol
Bronopolum
Bronopolu [Polish]
2-Nitro-2-bromo-1,3-propanediol
BNPD
Caswell No. 116A
Bronopolum [INN-Latin]
C3H6BrNO4
Bronopol [INN:BAN:JAN]
UNII-6PU1E16C9W
MFCD00007390
NSC 141021
HSDB 7195
EINECS 200-143-0
UN3241
beta-Bromo-beta-nitrotrimethyleneglycol
EPA Pesticide Chemical Code 216400
BRN 1705868
AI3-61639
6PU1E16C9W
CHEBI:31306
LVDKZNITIUWNER-UHFFFAOYSA-N
2-bromo-2-nitro-propane-1,3-diol
NCGC00164057-01
2-Bromo-2-nitro-1,3-propanediol, 98%
DSSTox_CID_4652
2-Bromo-2-nitropropane-1,3-diol (Bronopol)
DSSTox_RID_77484
DSSTox_GSID_24652
Q-200765
Bioban
2-Bromo-2-nitropropane-1,3-diol [UN3241] [Flammable Solid]
Myacide AS plus
Myacide BT
CAS-52-51-7
Myacide Pharma BP
Canguard 409
BNPK
2-Bromo-2-nitropropan-1,3-diol
ACMC-1ARSQ
AC1L1DPE
BNPD; BNPK; Bronopol
WLN: WNXE1Q1Q
1, 2-bromo-2-nitro-
EC 200-143-0
SCHEMBL23260
Bronopol (JAN/USAN/INN)
KSC911Q1T
Bioban BNPD-40 (Salt/Mix)
CHEMBL1408862
DTXSID8024652
SCHEMBL16556987
CTK8B1819
KS-00000URD
LVDKZNITIUWNER-UHFFFAOYSA-
2-bromo-2nitro-1,3-propanediol
2-bromo-2-nitro-1,3-propandiol
ALBB-031641
HY-B1217
ZINC1088216
Tox21_112079
Tox21_300126
1,3-Propanediol,2-bromo-2-nitro-
ANW-31486
LS-172
NSC141021
s4553
SBB000393
2-bromanyl-2-nitro-propane-1,3-diol
AKOS003606838
CCG-213823
CS-4699
FCH1115131
MCULE-8711651659
NSC-141021
RTR-018632
NCGC00164057-02
NCGC00164057-03
NCGC00253984-01
AN-24405
AS-11889
CC-09400
CJ-04763
ST041068
ZB016002
.beta.-Bromo-.beta.-nitrotrimethyleneglycol
AB1009265
DB-027831
TR-018632
B1247
Bronopol, PESTANAL(R), analytical standard
FT-0611399
52B517
C13034
D01577
AB01563195_01
Bronopol, 10 - 25% in a non hazardous diluent
A829125
C-09402
R401737
SR-01000944249
I01-1198
SR-01000944249-1
I14-11138
I14-11203
InChI=1/C3H6BrNO4/c4-3(1-6,2-7)5(8)9/h6-7H,1-2H2

> <TPSA>
86.3

> <TotalAidCount>
307

> <TotalFormalCharge>
0

> <XLogP>
-0.6

> <database>
PubChem Compound

> <matchingCount>
176

> <primaryID>
2450

> <queryTranslation>
7628[CompoundID] OR 244[CompoundID] OR 25059[CompoundID] OR 7618[CompoundID] OR 7641[CompoundID] OR 5053[CompoundID] OR 637511[CompoundID] OR 7714[CompoundID] OR 7762[CompoundID] OR 25429[CompoundID]
OR 8842[CompoundID] OR 7794[CompoundID] OR 637566[CompoundID] OR 7843[CompoundID] OR 174[CompoundID] OR 7870[CompoundID] OR 86102[CompoundID] OR 7888[CompoundID] OR 7896[CompoundID] OR 1140[CompoundID
] OR 8042[CompoundID] OR 8058[CompoundID] OR 8078[CompoundID] OR 8087[CompoundID] OR 8117[CompoundID] OR 8133[CompoundID] OR 115224[CompoundID] OR 8175[CompoundID] OR 8194[CompoundID] OR 445639[Compou
ndID] OR 4944[CompoundID] OR 8294[CompoundID] OR 93541[CompoundID] OR 8360[CompoundID] OR 8363[CompoundID] OR 656612[CompoundID] OR 125098[CompoundID] OR 3352[CompoundID] OR 3303913[CompoundID] OR 648
05[CompoundID] OR 31200[CompoundID] OR 1712058[CompoundID] OR 31236[CompoundID] OR 31239[CompoundID] OR 31265[CompoundID] OR 31266[CompoundID] OR 31276[CompoundID] OR 6950273[CompoundID] OR 518659[Com
poundID] OR 14896[CompoundID] OR 14798[CompoundID] OR 14829[CompoundID] OR 14830[CompoundID] OR 8635[CompoundID] OR 23266[CompoundID] OR 4284[CompoundID] OR 8693[CompoundID] OR 22311[CompoundID] OR 87
59[CompoundID] OR 8785[CompoundID] OR 2723810[CompoundID] OR 8857[CompoundID] OR 3893[CompoundID] OR 9936739[CompoundID] OR 516892[CompoundID] OR 5430[CompoundID] OR 9017[CompoundID] OR 15433[Compound
ID] OR 107720[CompoundID] OR 9552081[CompoundID] OR 164825[CompoundID] OR 10275455[CompoundID] OR 16666[CompoundID] OR 9839306[CompoundID] OR 5282227[CompoundID] OR 23676745[CompoundID] OR 32881[Compo
undID] OR 91581[CompoundID] OR 39800[CompoundID] OR 33344[CompoundID] OR 15962220[CompoundID] OR 33528[CompoundID] OR 5365075[CompoundID] OR 62829[CompoundID] OR 162381[CompoundID] OR 517202[CompoundI
D] OR 6433353[CompoundID] OR 2730[CompoundID] OR 5372405[CompoundID] OR 36081[CompoundID] OR 3120[CompoundID] OR 3017[CompoundID] OR 2969[CompoundID] OR 18827[CompoundID] OR 19518[CompoundID] OR 19658
[CompoundID] OR 38283[CompoundID] OR 2758[CompoundID] OR 10112[CompoundID] OR 10340[CompoundID] OR 712[CompoundID] OR 5794[CompoundID] OR 3347[CompoundID] OR 104150[CompoundID] OR 2912[CompoundID] OR
2450[CompoundID] OR 40326[CompoundID] OR 40585[CompoundID] OR 517055[CompoundID] OR 10913[CompoundID] OR 108242[CompoundID] OR 62097[CompoundID] OR 41679[CompoundID] OR 54680676[CompoundID] OR 62118[C
ompoundID] OR 753[CompoundID] OR 1030[CompoundID] OR 23673837[CompoundID] OR 54678504[CompoundID] OR 11442[CompoundID] OR 11463[CompoundID] OR 22230[CompoundID] OR 440917[CompoundID] OR 6054[CompoundI
D] OR 43234[CompoundID] OR 22629[CompoundID] OR 3039[CompoundID] OR 2735067[CompoundID] OR 6144[CompoundID] OR 702[CompoundID] OR 284[CompoundID] OR 176[CompoundID] OR 91688[CompoundID] OR 22947[Compo
undID] OR 47445[CompoundID] OR 1711973[CompoundID] OR 243[CompoundID] OR 10342051[CompoundID] OR 5281875[CompoundID] OR 3776[CompoundID] OR 6224[CompoundID] OR 104926[CompoundID] OR 8755[CompoundID] O
R 338[CompoundID] OR 123622[CompoundID] OR 23954[CompoundID] OR 6334[CompoundID] OR 2537[CompoundID] OR 24261[CompoundID] OR 23665760[CompoundID] OR 83975[CompoundID] OR 784[CompoundID] OR 24437[Compo
undID] OR 5360315[CompoundID] OR 311[CompoundID] OR 6549[CompoundID] OR 107689[CompoundID] OR 17100[CompoundID] OR 24976875[CompoundID] OR 6654[CompoundID] OR 71245[CompoundID] OR 6442842[CompoundID]
OR 62334[CompoundID] OR 54698175[CompoundID] OR 6328154[CompoundID] OR 24762[CompoundID] OR 440950[CompoundID] OR 7017[CompoundID] OR 5281873[CompoundID] OR 323[CompoundID] OR 5281167[CompoundID] OR 7
175[CompoundID] OR 7292[CompoundID] OR 6335613[CompoundID] OR 7456[CompoundID] OR 7462[CompoundID]

> <resultIndex>
162

> <resultRange>
1-176

> <textQuery>
7628,244,25059,7618,7641,5053,637511,7714,7762,25429,8842,7794,637566,7843,174,7870,86102,7888,7896,1140,8042,8058,8078,8087,8117,8133,115224,8175,8194,445639,4944,8294,93541,8360,8363,656612,125098,3
352,3303913,64805,31200,1712058,31236,31239,31265,31266,31276,6950273,518659,14896,14798,14829,14830,8635,23266,4284,8693,22311,8759,8785,2723810,8857,3893,9936739,516892,5430,9017,15433,107720,955208
1,164825,10275455,16666,9839306,5282227,23676745,32881,91581,39800,33344,15962220,33528,5365075,62829,162381,517202,6433353,2730,5372405,36081,3120,3017,2969,18827,19518,19658,38283,2758,10112,10340,7
12,5794,3347,104150,2912,2450,40326,40585,517055,10913,108242,62097,41679,54680676,62118,753,1030,23673837,54678504,11442,11463,22230,440917,6054,43234,22629,3039,2735067,6144,702,284,176,91688,22947,
47445,1711973,243,10342051,5281875,3776,6224,104926,8755,338,123622,23954,6334,2537,24261,23665760,83975,784,24437,5360315,311,6549,107689,17100,24976875,6654,71245,6442842,62334,54698175,6328154,2476
2,440950,7017,5281873,323,5281167,7175,7292,6335613,7456,7462

$$$$
1,140
  SciTegic10191915303D

 15 15  0  0  0  0            999 V2000
    0.3440    0.6420   -0.0040 C   0  0
   -1.0630    0.5920   -0.0040 C   0  0
    1.0900   -0.5490   -0.0040 C   0  0
   -1.7190   -0.6510   -0.0040 C   0  0
    0.4320   -1.7910   -0.0040 C   0  0
   -0.9730   -1.8420   -0.0040 C   0  0
    1.0390    1.9570   -0.0040 C   0  0
   -1.6410    1.5020   -0.0040 H   0  0
    2.1700   -0.5180   -0.0040 H   0  0
   -2.7990   -0.6900   -0.0040 H   0  0
    1.0060   -2.7070   -0.0040 H   0  0
   -1.4790   -2.7970   -0.0040 H   0  0
    2.1030    1.8030    0.1760 H   0  0
    0.8400    2.4750   -0.9410 H   0  0
    0.6500    2.5740    0.8070 H   0  0
  1  2  2  0
  1  3  1  0
  1  7  1  0
  2  4  1  0
  3  5  2  0
  4  6  2  0
  5  6  1  0
  2  8  1  0
  3  9  1  0
  4 10  1  0
  5 11  1  0
  6 12  1  0
  7 13  1  0
  7 14  1  0
  7 15  1  0
M  END
> <Name>
1,140

> <OBJECTID>
9223372719757918219

> <ActiveAidCount>
8

> <AtomChiralCount>
0

> <AtomChiralDefCount>
0

> <AtomChiralUndefCount>
0

> <BondChiralCount>
0

> <BondChiralDefCount>
0

> <BondChiralUndefCount>
0

> <CID>
1140

> <CanonicalSmiles>
CC1=CC=CC=C1

> <Complexity>
42

> <CovalentUnitCount>
1

> <CreateDate>
2004/09/16 00:00

> <HeavyAtomCount>
7

> <HydrogenBondAcceptorCount>
0

> <HydrogenBondDonorCount>
0

> <IUPACName>
toluene

> <InChI>
InChI=1S/C7H8/c1-7-5-3-2-4-6-7/h2-6H,1H3

> <InChIKey>
YXFVVABEGXRONW-UHFFFAOYSA-N

> <IsomericSmiles>
CC1=CC=CC=C1

> <IsotopeAtomCount>
0

> <MeSHHeading>
Toluene

> <MeSHTerm>
Toluene

> <MolecularFormula>
C7H8

> <MolecularWeight>
92.14

> <PharmAction>
Specialty Uses of Chemicals
Chemical Actions and Uses
Solvents

> <RotatableBondCount>
0

> <Smiles>
c1(C)ccccc1

> <SourceCategory>
Chemical Vendors
Legacy Depositors
Research and Development
Curation Efforts
Governmental Organizations
NIH Initiatives
Subscription Services
Journal Publishers

> <Synonym>
toluene
methylbenzene
toluol
108-88-3
Phenylmethane
Benzene, methyl-
methylbenzol
methacide
Toluen
antisal 1a
tolu-sol
monomethyl benzene
Methane, phenyl-
Tolueen
Toluolo
phenyl methane
methyl-Benzene
Tolueen [Dutch]
Toluen [Czech]
Tolueno [Spanish]
Toluolo [Italian]
RCRA waste number U220
NCI-C07272
Caswell No. 859
para-toluene
p-toluene
Benzene, methyl
CP 25
UNII-3FPU23BG52
NSC 406333
UN 1294
PHME
CCRIS 2366
HSDB 131
EINECS 203-625-9
MFCD00008512
UN1294
RCRA waste no. U220
EPA Pesticide Chemical Code 080601
paratoluene
CHEMBL9113
AI3-02261
3FPU23BG52
CHEBI:17578
YXFVVABEGXRONW-UHFFFAOYSA-N
Toluene, anhydrous
NCGC00090939-02
Otoline
DSSTox_CID_1360
Toluene, analytical standard
DSSTox_RID_76107
DSSTox_GSID_21360
Toluene, 99+%, extra pure
Toluene, 99.5%, ACS reagent
Toluene, 99.8+%, for analysis
Tolueno
methyl benzene
Toluene, ACS reagent, >=99.5%
1-Methylbenzene
CAS-108-88-3
Toluene, 99.85%, for pesticide residue analysis
Anisen
Dracyl
phenyl-methane
2-methylbenzene
4-methylbenzene
toluene-
Toluene, 99.85%, Extra Dry over Molecular Sieve, AcroSeal(R)
MePh
Titration Solvent
2-methyl benzene
4-methyl-benzene
Benzylidyne radical
Toluene, technical
Toluene ACS Grade
Toluene HPLC grade
Methylbenzene, 9CI
Toluene (Technical)
Toluene, for HPLC
ACMC-20egwh
PhCH3
Toluene, ACS reagent
Toluene, HPLC Grade
4i7k
Toluene, 99.5%
AC1L1ATE
TOLUENE- D8
Toluene Reagent Grade ACS
EC 203-625-9
AC1L4W1C
Toluene, Environmental Grade
Toluene, Semiconductor Grade
Toluene, LR, >=99%
C6H5CH3
WLN: 1R
BIDD:ER0288
Toluene, anhydrous, 99.8%
Toluene, ASTM, 99.5%
Toluene, p.a., 99.5%
GTPL5481
DTXSID7021360
Toluene, AR, >=99.5%
Toluene, for HPLC, 99.9%
Toluene, LR, rectified, 99%
DTXSID00184990
Toluene GC, for residue analysis
Toluene, HPLC grade, 99.8%
Toluene, Spectrophotometric Grade
LS-26
Toluene 10 microg/mL in Methanol
Toluene, LR, sulfur free, 99%
ZINC967534
Toluene, AR, rectified, 99.5%
Toluene, technical grade, 95.0%
BCP16202
Toluene, for HPLC, >=99.8%
Toluene, for HPLC, >=99.9%
Toluene, histology grade, practical
Toluene, PRA grade, >=99.8%
Toluene 100 microg/mL in Methanol
Tox21_111042
Tox21_201224
ANW-44012
BDBM50008558
NSC406333
Toluene 1000 microg/mL in Methanol
Toluene, purification grade, 99.8%
AKOS015840411
ZINC100116646
DB11558
MCULE-4817136027
NSC-406333
RL00380
RTR-002003
Toluene [UN1294] [Flammable liquid]
Toluene, puriss., >=99.5% (GC)
Toluene, SAJ first grade, >=99.0%
NCGC00090939-01
NCGC00090939-03
NCGC00258776-01
Toluene [UN1294] [Flammable liquid]
Toluene, 99.5%, for spectroscopy ACS
Toluene, JIS special grade, >=99.5%
Toluene, Laboratory Reagent, >=99.3%
50643-04-4
AN-42912
SC-19104
Toluene disproportionation catalyst ZA-90
Toluene, for HPLC, >=99.7% (GC)
Toluene, UV HPLC spectroscopic, 99.5%
ZB015462
Toluene, anhydrous, ZerO2(TM), 99.8%
TR-002003
941-EP0930075A1
941-EP2269975A2
941-EP2269977A2
941-EP2269978A2
941-EP2269979A1
941-EP2269985A2
941-EP2269986A1
941-EP2269987A1
941-EP2269988A2
941-EP2269989A1
941-EP2269990A1
941-EP2269991A2
941-EP2269992A1
941-EP2269993A1
941-EP2269995A1
941-EP2269997A2
941-EP2270000A1
941-EP2270001A1
941-EP2270002A1
941-EP2270003A1
941-EP2270004A1
941-EP2270006A1
941-EP2270008A1
941-EP2270009A1
941-EP2270010A1
941-EP2270011A1
941-EP2270014A1
941-EP2270101A1
941-EP2270113A1
941-EP2270114A1
941-EP2270505A1
941-EP2272509A1
941-EP2272516A2
941-EP2272517A1
941-EP2272537A2
941-EP2272813A2
941-EP2272817A1
941-EP2272822A1
941-EP2272825A2
941-EP2272827A1
941-EP2272828A1
941-EP2272829A2
941-EP2272830A1
941-EP2272831A1
941-EP2272832A1
941-EP2272834A1
941-EP2272835A1
941-EP2272837A1
941-EP2272838A1
941-EP2272839A1
941-EP2272840A1
941-EP2272841A1
941-EP2272842A1
941-EP2272843A1
941-EP2272844A1
941-EP2272847A1
941-EP2272848A1
941-EP2272849A1
941-EP2272935A1
941-EP2274983A1
941-EP2275102A1
941-EP2275395A2
941-EP2275401A1
941-EP2275403A1
941-EP2275404A1
941-EP2275407A1
941-EP2275409A1
941-EP2275410A1
941-EP2275411A2
941-EP2275413A1
941-EP2275414A1
941-EP2275415A2
941-EP2275416A1
941-EP2275418A1
941-EP2275427A1
941-EP2275469A1
941-EP2277848A1
941-EP2277858A1
941-EP2277861A1
941-EP2277865A1
941-EP2277867A2
941-EP2277871A1
941-EP2277875A2
941-EP2277877A1
941-EP2277878A1
941-EP2277880A1
941-EP2277881A1
941-EP2279750A1
941-EP2280000A1
941-EP2280001A1
941-EP2280003A2
941-EP2280004A1
941-EP2280005A1
941-EP2280006A1
941-EP2280007A1
941-EP2280008A2
941-EP2280009A1
941-EP2280010A2
941-EP2280011A1
941-EP2280012A2
941-EP2280014A2
941-EP2280020A1
941-EP2280021A1
941-EP2281563A1
941-EP2281810A1
941-EP2281812A1
941-EP2281813A1
941-EP2281815A1
941-EP2281817A1
941-EP2281818A1
941-EP2281819A1
941-EP2281820A2
941-EP2281821A1
941-EP2281822A1
941-EP2281899A2
941-EP2284148A1
941-EP2284149A1
941-EP2284150A2
941-EP2284151A2
941-EP2284152A2
941-EP2284153A2
941-EP2284155A2
941-EP2284156A2
941-EP2284157A1
941-EP2284158A1
941-EP2284159A1
941-EP2284160A1
941-EP2284164A2
941-EP2284165A1
941-EP2284167A2
941-EP2284168A2
941-EP2284169A1
941-EP2284170A1
941-EP2284172A1
941-EP2284174A1
941-EP2284920A1
941-EP2286811A1
941-EP2286915A2
941-EP2287140A2
941-EP2287141A1
941-EP2287147A2
941-EP2287148A2
941-EP2287150A2
941-EP2287152A2
941-EP2287153A1
941-EP2287154A1
941-EP2287155A1
941-EP2287156A1
941-EP2287157A1
941-EP2287159A1
941-EP2287161A1
941-EP2287162A1
941-EP2287165A2
941-EP2287166A2
941-EP2287167A1
941-EP2287168A2
941-EP2287940A1
941-EP2289509A2
941-EP2289510A1
941-EP2289868A1
941-EP2289876A1
941-EP2289877A1
941-EP2289879A1
941-EP2289883A1
941-EP2289884A1
941-EP2289885A1
941-EP2289887A2
941-EP2289888A2
941-EP2289890A1
941-EP2289892A1
941-EP2289893A1
941-EP2289894A2
941-EP2289896A1
941-EP2289897A1
941-EP2289965A1
941-EP2292227A2
941-EP2292228A1
941-EP2292233A2
941-EP2292586A2
941-EP2292589A1
941-EP2292592A1
941-EP2292593A2
941-EP2292595A1
941-EP2292596A2
941-EP2292597A1
941-EP2292599A1
941-EP2292601A1
941-EP2292602A1
941-EP2292603A1
941-EP2292604A2
941-EP2292606A1
941-EP2292607A2
941-EP2292609A1
941-EP2292610A1
941-EP2292612A2
941-EP2292615A1
941-EP2292617A1
941-EP2292618A1
941-EP2292619A1
941-EP2292620A2
941-EP2292621A1
941-EP2292622A1
941-EP2292624A1
941-EP2292628A2
941-EP2292629A1
941-EP2293650A1
941-EP2295053A1
941-EP2295399A2
941-EP2295401A2
941-EP2295406A1
941-EP2295407A1
941-EP2295409A1
941-EP2295410A1
941-EP2295411A1
941-EP2295412A1
941-EP2295413A1
941-EP2295414A1
941-EP2295415A1
941-EP2295416A2
941-EP2295417A1
941-EP2295418A1
941-EP2295419A2
941-EP2295420A1
941-EP2295421A1
941-EP2295423A1
941-EP2295425A1
941-EP2295426A1
941-EP2295427A1
941-EP2295429A1
941-EP2295432A1
941-EP2295433A2
941-EP2295437A1
941-EP2295438A1
941-EP2295439A1
941-EP2295503A1
941-EP2298312A1
941-EP2298313A1
941-EP2298729A1
941-EP2298731A1
941-EP2298734A2
941-EP2298735A1
941-EP2298736A1
941-EP2298737A1
941-EP2298739A1
941-EP2298740A1
941-EP2298741A1
941-EP2298742A1
941-EP2298743A1
941-EP2298744A2
941-EP2298745A1
941-EP2298746A1
941-EP2298747A1
941-EP2298748A2
941-EP2298749A1
941-EP2298750A1
941-EP2298751A2
941-EP2298752A1
941-EP2298753A1
941-EP2298754A1
941-EP2298755A1
941-EP2298756A1
941-EP2298757A2
941-EP2298758A1
941-EP2298759A1
941-EP2298761A1
941-EP2298763A1
941-EP2298764A1
941-EP2298765A1
941-EP2298767A1
941-EP2298768A1
941-EP2298770A1
941-EP2298771A2
941-EP2298772A1
941-EP2298774A1
941-EP2298775A1
941-EP2298776A1
941-EP2298777A2
941-EP2298778A1
941-EP2298779A1
941-EP2298780A1
941-EP2298783A1
941-EP2298828A1
941-EP2299326A1
941-EP2299509A1
941-EP2299510A1
941-EP2299785A1
941-EP2301536A1
941-EP2301538A1
941-EP2301627A1
941-EP2301911A1
941-EP2301918A1
941-EP2301919A1
941-EP2301920A1
941-EP2301921A1
941-EP2301922A1
941-EP2301923A1
941-EP2301924A1
941-EP2301925A1
941-EP2301926A1
941-EP2301927A1
941-EP2301928A1
941-EP2301929A1
941-EP2301930A1
941-EP2301931A1
941-EP2301932A1
941-EP2301933A1
941-EP2301934A1
941-EP2301935A1
941-EP2301936A1
941-EP2301937A1
941-EP2301939A1
941-EP2301940A1
941-EP2301983A1
941-EP2302003A1
941-EP2302015A1
941-EP2305219A1
941-EP2305250A1
941-EP2305254A1
941-EP2305257A1
941-EP2305625A1
941-EP2305627A1
941-EP2305633A1
941-EP2305636A1
941-EP2305637A2
941-EP2305640A2
941-EP2305641A1
941-EP2305642A2
941-EP2305643A1
941-EP2305646A1
941-EP2305647A1
941-EP2305648A1
941-EP2305649A1
941-EP2305650A1
941-EP2305651A1
941-EP2305652A2
941-EP2305655A2
941-EP2305656A1
941-EP2305658A1
941-EP2305659A1
941-EP2305660A1
941-EP2305662A1
941-EP2305664A1
941-EP2305666A1
941-EP2305667A2
941-EP2305668A1
941-EP2305669A1
941-EP2305671A1
941-EP2305672A1
941-EP2305674A1
941-EP2305675A1
941-EP2305676A1
941-EP2305677A1
941-EP2305679A1
941-EP2305680A2
941-EP2305682A1
941-EP2305684A1
941-EP2305685A1
941-EP2305686A1
941-EP2305687A1
941-EP2305688A1
941-EP2305695A2
941-EP2305696A2
941-EP2305697A2
941-EP2305698A2
941-EP2305769A2
941-EP2305808A1
941-EP2305825A1
941-EP2306788A1
941-EP2306789A1
941-EP2308471A1
941-EP2308479A2
941-EP2308492A1
941-EP2308510A1
941-EP2308562A2
941-EP2308812A2
941-EP2308828A2
941-EP2308831A1
941-EP2308833A2
941-EP2308838A1
941-EP2308839A1
941-EP2308840A1
941-EP2308841A2
941-EP2308843A1
941-EP2308844A2
941-EP2308845A2
941-EP2308846A2
941-EP2308848A1
941-EP2308849A1
941-EP2308850A1
941-EP2308851A1
941-EP2308853A1
941-EP2308854A1
941-EP2308857A1
941-EP2308858A1
941-EP2308861A1
941-EP2308862A1
941-EP2308864A1
941-EP2308865A1
941-EP2308867A2
941-EP2308868A1
941-EP2308869A1
941-EP2308870A2
941-EP2308871A1
941-EP2308872A1
941-EP2308873A1
941-EP2308874A1
941-EP2308875A1
941-EP2308876A1
941-EP2308877A1
941-EP2308879A1
941-EP2308880A1
941-EP2308882A1
941-EP2308926A1
941-EP2308960A1
941-EP2309564A1
941-EP2309584A1
941-EP2311455A1
941-EP2311464A1
941-EP2311801A1
941-EP2311802A1
941-EP2311803A1
941-EP2311804A2
941-EP2311805A1
941-EP2311806A2
941-EP2311807A1
941-EP2311808A1
941-EP2311811A1
941-EP2311813A1
941-EP2311814A1
941-EP2311815A1
941-EP2311816A1
941-EP2311817A1
941-EP2311818A1
941-EP2311820A1
941-EP2311822A1
941-EP2311823A1
941-EP2311824A1
941-EP2311826A2
941-EP2311827A1
941-EP2311829A1
941-EP2311830A1
941-EP2311831A1
941-EP2311835A1
941-EP2311836A1
941-EP2314295A1
941-EP2314558A1
941-EP2314571A2
941-EP2314574A1
941-EP2314575A1
941-EP2314576A1
941-EP2314577A1
941-EP2314578A1
941-EP2314579A1
941-EP2314581A1
941-EP2314582A1
941-EP2314583A1
941-EP2314585A1
941-EP2314586A1
941-EP2314587A1
941-EP2314588A1
941-EP2314590A1
941-EP2314591A1
941-EP2314593A1
941-EP2315303A1
941-EP2315502A1
941-EP2316452A1
941-EP2316457A1
941-EP2316824A1
941-EP2316825A1
941-EP2316826A1
941-EP2316827A1
941-EP2316829A1
941-EP2316831A1
941-EP2316832A1
941-EP2316833A1
941-EP2316835A1
941-EP2316836A1
941-EP2370383A2
941-EP2371795A1
941-EP2371797A1
941-EP2371798A1
941-EP2371800A1
941-EP2371804A1
941-EP2371805A1
941-EP2371810A1
941-EP2371811A2
941-EP2371812A1
941-EP2371813A1
941-EP2371814A1
941-EP2371831A1
941-EP2372804A1
941-EP2374454A1
941-EP2374783A1
941-EP2374787A1
941-EP2374788A1
941-EP2374790A1
941-EP2374895A1
941-EP2377841A1
941-EP2377845A1
941-EP2377847A1
941-EP2378585A1
941-EP2380568A1
941-EP2380867A1
941-EP2380873A1
941-EP2380874A2
FT-0626841
FT-0654077
Toluene, 99.85%, Extra Dry, AcroSeal(R)
Toluene, suitable for determination of dioxins
4489-EP2272846A1
C01455
Toluene, suitable for scintillation, >=99.7%
28403-EP2269977A2
28403-EP2311830A1
28403-EP2314581A1
28443-EP2269995A1
28443-EP2275403A1
28443-EP2284178A2
28443-EP2284179A2
28443-EP2292615A1
28443-EP2298738A1
28443-EP2298776A1
28443-EP2301627A1
28443-EP2301937A1
28443-EP2305685A1
28443-EP2305686A1
28443-EP2311464A1
28443-EP2314581A1
28443-EP2371805A1
28443-EP2377847A1
48782-EP2272834A1
48782-EP2275398A1
48782-EP2284165A1
48782-EP2298745A1
48782-EP2301929A1
48782-EP2301935A1
48782-EP2305674A1
48782-EP2311812A1
56745-EP2272846A1
56745-EP2275408A1
56745-EP2275422A1
56745-EP2277862A2
56745-EP2277868A1
56745-EP2277869A1
56745-EP2277870A1
56745-EP2281861A2
56745-EP2284166A1
56745-EP2287164A1
56745-EP2289483A1
56745-EP2289881A1
56745-EP2292608A1
56745-EP2292616A1
56745-EP2292625A1
56745-EP2295422A2
56745-EP2295436A1
56745-EP2298076A1
56745-EP2298077A1
56745-EP2298305A1
56745-EP2298749A1
56745-EP2298762A2
56745-EP2298769A1
56745-EP2298773A1
56745-EP2301353A1
56745-EP2305031A1
56745-EP2305033A1
56745-EP2305034A1
56745-EP2305035A1
56745-EP2308866A1
56745-EP2308878A2
56745-EP2371806A1
56745-EP2371807A1
56745-EP2371823A1
56745-EP2374791A1
56745-EP2380874A2
Toluene liquid density, NIST(R) SRM(R) 211d
Toluene, for residue analysis, >=99.8% (GC)
133890-EP2275410A1
133890-EP2295420A1
300204X
A801937
SR-01000944565
Toluene, ACS spectrophotometric grade, >=99.5%
I01-4407
SR-01000944565-1
Toluene, p.a., ACS reagent, reag. ISO, 99.5%
InChI=1/C7H8/c1-7-5-3-2-4-6-7/h2-6H,1H
Toluene, suitable for 5000 per JIS, for residue analysis
TOLUENE (SEE ALSO TOLUENE (TECHNICAL), NTP 11617-L)
Toluene, HPLC Plus, for HPLC, GC, and residue analysis, >=99.9%
Toluene, p.a., ACS reagent, reag. ISO, reag. Ph. Eur., 99.5%
Toluene, suitable for 300 per JIS, for residue analysis, >=99.8%
TOLUENE (TECHNICAL) (SEE ALSOTOLUENE (NITRATION GRADE) NTP10009-V)
Toluene, 99.85%, Extra Dry, AcroSeal(R), package of 4x25ML bottles
Toluene, absolute, over molecular sieve (H2O <=0.005%), >=99.7% (GC)
Toluene, Pharmaceutical Secondary Standard; Certified Reference Material
Toluene, suitable for 1000 per JIS, for residue analysis, >=99.8%
Residual Solvent - Toluene, Pharmaceutical Secondary Standard; Certified Reference Material
Toluene, puriss. p.a., ACS reagent, reag. ISO, reag. Ph. Eur., >=99.7% (GC)

> <TPSA>
0

> <TotalAidCount>
450

> <TotalFormalCharge>
0

> <XLogP>
2.7

> <database>
PubChem Compound

> <matchingCount>
176

> <primaryID>
1140

> <queryTranslation>
7628[CompoundID] OR 244[CompoundID] OR 25059[CompoundID] OR 7618[CompoundID] OR 7641[CompoundID] OR 5053[CompoundID] OR 637511[CompoundID] OR 7714[CompoundID] OR 7762[CompoundID] OR 25429[CompoundID]
OR 8842[CompoundID] OR 7794[CompoundID] OR 637566[CompoundID] OR 7843[CompoundID] OR 174[CompoundID] OR 7870[CompoundID] OR 86102[CompoundID] OR 7888[CompoundID] OR 7896[CompoundID] OR 1140[CompoundID
] OR 8042[CompoundID] OR 8058[CompoundID] OR 8078[CompoundID] OR 8087[CompoundID] OR 8117[CompoundID] OR 8133[CompoundID] OR 115224[CompoundID] OR 8175[CompoundID] OR 8194[CompoundID] OR 445639[Compou
ndID] OR 4944[CompoundID] OR 8294[CompoundID] OR 93541[CompoundID] OR 8360[CompoundID] OR 8363[CompoundID] OR 656612[CompoundID] OR 125098[CompoundID] OR 3352[CompoundID] OR 3303913[CompoundID] OR 648
05[CompoundID] OR 31200[CompoundID] OR 1712058[CompoundID] OR 31236[CompoundID] OR 31239[CompoundID] OR 31265[CompoundID] OR 31266[CompoundID] OR 31276[CompoundID] OR 6950273[CompoundID] OR 518659[Com
poundID] OR 14896[CompoundID] OR 14798[CompoundID] OR 14829[CompoundID] OR 14830[CompoundID] OR 8635[CompoundID] OR 23266[CompoundID] OR 4284[CompoundID] OR 8693[CompoundID] OR 22311[CompoundID] OR 87
59[CompoundID] OR 8785[CompoundID] OR 2723810[CompoundID] OR 8857[CompoundID] OR 3893[CompoundID] OR 9936739[CompoundID] OR 516892[CompoundID] OR 5430[CompoundID] OR 9017[CompoundID] OR 15433[Compound
ID] OR 107720[CompoundID] OR 9552081[CompoundID] OR 164825[CompoundID] OR 10275455[CompoundID] OR 16666[CompoundID] OR 9839306[CompoundID] OR 5282227[CompoundID] OR 23676745[CompoundID] OR 32881[Compo
undID] OR 91581[CompoundID] OR 39800[CompoundID] OR 33344[CompoundID] OR 15962220[CompoundID] OR 33528[CompoundID] OR 5365075[CompoundID] OR 62829[CompoundID] OR 162381[CompoundID] OR 517202[CompoundI
D] OR 6433353[CompoundID] OR 2730[CompoundID] OR 5372405[CompoundID] OR 36081[CompoundID] OR 3120[CompoundID] OR 3017[CompoundID] OR 2969[CompoundID] OR 18827[CompoundID] OR 19518[CompoundID] OR 19658
[CompoundID] OR 38283[CompoundID] OR 2758[CompoundID] OR 10112[CompoundID] OR 10340[CompoundID] OR 712[CompoundID] OR 5794[CompoundID] OR 3347[CompoundID] OR 104150[CompoundID] OR 2912[CompoundID] OR
2450[CompoundID] OR 40326[CompoundID] OR 40585[CompoundID] OR 517055[CompoundID] OR 10913[CompoundID] OR 108242[CompoundID] OR 62097[CompoundID] OR 41679[CompoundID] OR 54680676[CompoundID] OR 62118[C
ompoundID] OR 753[CompoundID] OR 1030[CompoundID] OR 23673837[CompoundID] OR 54678504[CompoundID] OR 11442[CompoundID] OR 11463[CompoundID] OR 22230[CompoundID] OR 440917[CompoundID] OR 6054[CompoundI
D] OR 43234[CompoundID] OR 22629[CompoundID] OR 3039[CompoundID] OR 2735067[CompoundID] OR 6144[CompoundID] OR 702[CompoundID] OR 284[CompoundID] OR 176[CompoundID] OR 91688[CompoundID] OR 22947[Compo
undID] OR 47445[CompoundID] OR 1711973[CompoundID] OR 243[CompoundID] OR 10342051[CompoundID] OR 5281875[CompoundID] OR 3776[CompoundID] OR 6224[CompoundID] OR 104926[CompoundID] OR 8755[CompoundID] O
R 338[CompoundID] OR 123622[CompoundID] OR 23954[CompoundID] OR 6334[CompoundID] OR 2537[CompoundID] OR 24261[CompoundID] OR 23665760[CompoundID] OR 83975[CompoundID] OR 784[CompoundID] OR 24437[Compo
undID] OR 5360315[CompoundID] OR 311[CompoundID] OR 6549[CompoundID] OR 107689[CompoundID] OR 17100[CompoundID] OR 24976875[CompoundID] OR 6654[CompoundID] OR 71245[CompoundID] OR 6442842[CompoundID]
OR 62334[CompoundID] OR 54698175[CompoundID] OR 6328154[CompoundID] OR 24762[CompoundID] OR 440950[CompoundID] OR 7017[CompoundID] OR 5281873[CompoundID] OR 323[CompoundID] OR 5281167[CompoundID] OR 7
175[CompoundID] OR 7292[CompoundID] OR 6335613[CompoundID] OR 7456[CompoundID] OR 7462[CompoundID]

> <resultIndex>
163

> <resultRange>
1-176

> <textQuery>
7628,244,25059,7618,7641,5053,637511,7714,7762,25429,8842,7794,637566,7843,174,7870,86102,7888,7896,1140,8042,8058,8078,8087,8117,8133,115224,8175,8194,445639,4944,8294,93541,8360,8363,656612,125098,3
352,3303913,64805,31200,1712058,31236,31239,31265,31266,31276,6950273,518659,14896,14798,14829,14830,8635,23266,4284,8693,22311,8759,8785,2723810,8857,3893,9936739,516892,5430,9017,15433,107720,955208
1,164825,10275455,16666,9839306,5282227,23676745,32881,91581,39800,33344,15962220,33528,5365075,62829,162381,517202,6433353,2730,5372405,36081,3120,3017,2969,18827,19518,19658,38283,2758,10112,10340,7
12,5794,3347,104150,2912,2450,40326,40585,517055,10913,108242,62097,41679,54680676,62118,753,1030,23673837,54678504,11442,11463,22230,440917,6054,43234,22629,3039,2735067,6144,702,284,176,91688,22947,
47445,1711973,243,10342051,5281875,3776,6224,104926,8755,338,123622,23954,6334,2537,24261,23665760,83975,784,24437,5360315,311,6549,107689,17100,24976875,6654,71245,6442842,62334,54698175,6328154,2476
2,440950,7017,5281873,323,5281167,7175,7292,6335613,7456,7462

$$$$
1,030
  SciTegic10191915303D

 13 12  0  0  1  0            999 V2000
   -1.3070   -0.2630   -0.4610 C   0  0
    0.2220   -0.2630   -0.4610 C   0  0  3  0  0  0
    0.8120    0.3970    0.7870 C   0  0
    0.5170    1.7740    0.7380 O   0  0
    0.6620   -1.6010   -0.5040 O   0  0
   -1.6920   -0.7650   -1.3500 H   0  0
   -1.6920   -0.7650    0.4260 H   0  0
   -1.6920    0.7560   -0.4610 H   0  0
    0.5720    0.2390   -1.3630 H   0  0
    1.8960    0.2820    0.8070 H   0  0
    0.3610   -0.0170    1.6890 H   0  0
    0.8980    2.1760    1.5350 H   0  0
    0.4430   -1.9470   -1.3830 H   0  0
  1  2  1  0
  2  3  1  0
  2  5  1  0
  3  4  1  0
  1  6  1  0
  1  7  1  0
  1  8  1  0
  2  9  1  0
  3 10  1  0
  3 11  1  0
  4 12  1  0
  5 13  1  0
M  END
> <Name>
1,030

> <OBJECTID>
9223372724052885515

> <ActiveAidCount>
1

> <AtomChiralCount>
1

> <AtomChiralDefCount>
0

> <AtomChiralUndefCount>
1

> <BondChiralCount>
0

> <BondChiralDefCount>
0

> <BondChiralUndefCount>
0

> <CID>
1030

> <CanonicalSmiles>
CC(CO)O

> <Complexity>
20.9

> <CovalentUnitCount>
1

> <CreateDate>
2004/09/16 00:00

> <HeavyAtomCount>
5

> <HydrogenBondAcceptorCount>
2

> <HydrogenBondDonorCount>
2

> <IUPACName>
propane-1,2-diol

> <InChI>
InChI=1S/C3H8O2/c1-3(5)2-4/h3-5H,2H2,1H3

> <InChIKey>
DNIAPMSPPWPWGF-UHFFFAOYSA-N

> <IsomericSmiles>
CC(CO)O

> <IsotopeAtomCount>
0

> <MeSHHeading>
Propylene Glycol

> <MeSHTerm>
Propylene Glycol, (R)-Isomer
Monohydrate, Propylene Glycol
Propylene Glycol, (+-)-Isomer
Glycol, Propylene
1,2 Propanediol
Propan-1,2-Diol
Propylene Glycol, (S)-Isomer
1,2-Propanediol
Propylene Glycol Monohydrate
Propylene Glycol Sodium Salt
Propylene Glycol

> <MolecularFormula>
C3H8O2

> <MolecularWeight>
76.09

> <PharmAction>
Pharmaceutical Preparations
Pharmaceutic Aids
Pharmaceutical Vehicles
Chemical Actions and Uses
Specialty Uses of Chemicals
Solvents

> <RotatableBondCount>
1

> <Smiles>
CC(O)CO

> <SourceCategory>
Chemical Vendors
Legacy Depositors
Research and Development
Curation Efforts
Governmental Organizations
NIH Initiatives
Subscription Services
Journal Publishers

> <Synonym>
1,2-propanediol
propylene glycol
propane-1,2-diol
57-55-6
1,2-Propylene glycol
1,2-dihydroxypropane
2-Hydroxypropanol
Methylethyl glycol
Methylethylene glycol
Isopropylene glycol
Monopropylene glycol
Dowfrost
Sirlene
Trimethyl glycol
2,3-Propanediol
Propylene Glycol USP
Solargard P
alpha-Propyleneglycol
Solar Winter BAN
dl-Propylene glycol
1,2-Propylenglykol
DL-1,2-Propanediol
Ucar 35
Sentry Propylene Glycol
(RS)-1,2-Propanediol
(+-)-1,2-Propanediol
PG 12
(+-)-Propylene glycol
propylenglycol
alpha-Propylene glycol
Caswell No. 713
FEMA No. 2940
1,2-Propylenglykol [German]
CCRIS 5929
HSDB 174
Prolugen
.alpha.-Propylene glycol
1,2-(RS)-Propanediol
Ilexan P
AI3-01898
1,2-propandiol
MFCD00064272
NSC 69860
SDM No. 27
1,2-propane diol
1,2-propane-diol
EPA Pesticide Chemical Code 068603
Propan-1,2-Diol
CHEBI:16997
HOCH2CH(OH)Me
MeCH(OH)CH2OH
EINECS 200-338-0
S-(+)-Propylene glycol
1000PG
CH3CH(OH)CH2OH
HOCH2CH(OH)CH3
BRN 1340498
1,2-Propanediol, ACS reagent
1,2-Propanediol (8CI,9CI)
DNIAPMSPPWPWGF-UHFFFAOYSA-N
1, 2-propanediol
L-1,2-propanediol
LS-1391
NCGC00090739-02
(+/-)-Propylene glycol
DSSTox_CID_1206
( inverted exclamation markA)-1,2-Propanediol
DSSTox_RID_76010
DSSTox_GSID_21206
General lube
1,2-Propanediol, 99%, extra pure
Propylene Glycol (Propane-1,2-diol)
1,2-Propanediol, 99+%, for analysis
CAS-57-55-6
1,2 Propanediol
S(+)-Propylene glycol
All purpose lubricant
Sirlenl
Propylene glycol [USP:JAN]
Propylene glycol [USAN:JAN]
propylene-glycol
Aliphatic alcohol
Centella Asiatica
Chilisa FE
1.2-propanediol
a-Propylene glycol
1,2 -propanediol
1,2-propyleneglycol
1,2-Dihydroxypropanl
Propylene glycol, USP
Average MW 1000
Propylene glycol (TN)
racemic propylene glycol
ACMC-1AMKJ
racemic 1,2-propanediol
AC1L1AKN
JEFFCOOL P150
methyl ethyl glycol (MEGl
Propylene Glycol 50/50
ACMC-209jq5
ACMC-209jq6
bmse000302
Epitope ID:161748
EC 200-338-0
propylene glycol cefatrizine
DSSTox_RID_78594
H[OCH(CH3)CH2]nOH
Propylene glycol, FCC, FG
DSSTox_GSID_27863
Polypropylene glycol 1,000
3-01-00-02142 (Beilstein Handbook Reference)
KSC269I3T
MLS001055394
WLN: QY1&1Q
Propylene Glycol Reagent Grade
CHEMBL286398
Propylene glycol (JP17/USP)
Glycol, polypropylene (P400)
Glycol, polypropylene (P750)
Inhibited 1,2-propylene glycol
DTXSID0021206
(.+/-.)-1,2-Propanediol
CTK1G9439
KS-00000GZH
Glycol, polypropylene (P1200)
HMS3039O11
Propylene Glycol (Fragrance Grade)
Propylene Glycol, Industrial Grade
1,2-Propanediol, LR, >=99%
BCP23677
HY-Y0921
NSC35747
NSC35748
NSC35749
NSC69860
Tox21_111003
Tox21_201812
Tox21_300006
Tox21_301441
1,2-Propanediol, USP, 99.5%
ANW-49390
BBL011472
NSC-35747
NSC-35748
NSC-35749
NSC-69860
STL146584
1,2-Propanediol, analytical standard
1,2-Propanediol, puriss., 99.5%
AKOS000121049
AKOS016355793
DB01839
MCULE-5574440784
RP18353
RTR-031941
TRA0011379
TRA0062727
TRA0087797
NCGC00090739-01
NCGC00090739-03
NCGC00090739-04
NCGC00254159-01
NCGC00255183-01
NCGC00259361-01
1,2-Propanediol, ReagentPlus(R), 99%
4254-16-4
AK-46689
AK111153
AK158454
AN-41725
BP-21014
E490
SC-16372
SMR000677948
SY003769
SY003770
CAS-25322-69-4
TR-031941
1,2-Propanediol, ACS reagent, >=99.5%
1,2-Propanediol, ReagentPlus(R), >=99%
432-EP2269978A2
432-EP2269985A2
432-EP2269991A2
432-EP2269996A1
432-EP2270002A1
432-EP2270004A1
432-EP2270005A1
432-EP2270006A1
432-EP2270010A1
432-EP2270101A1
432-EP2270505A1
432-EP2272517A1
432-EP2272537A2
432-EP2272817A1
432-EP2272822A1
432-EP2272832A1
432-EP2272834A1
432-EP2272835A1
432-EP2272841A1
432-EP2272844A1
432-EP2272847A1
432-EP2272848A1
432-EP2272849A1
432-EP2274983A1
432-EP2275102A1
432-EP2275413A1
432-EP2275417A2
432-EP2275469A1
432-EP2277565A2
432-EP2277566A2
432-EP2277567A1
432-EP2277568A2
432-EP2277569A2
432-EP2277570A2
432-EP2277848A1
432-EP2277861A1
432-EP2277865A1
432-EP2277866A1
432-EP2277876A1
432-EP2277877A1
432-EP2277879A1
432-EP2277881A1
432-EP2280001A1
432-EP2280008A2
432-EP2280010A2
432-EP2281816A1
432-EP2281818A1
432-EP2281819A1
432-EP2281823A2
432-EP2283811A1
432-EP2284149A1
432-EP2284150A2
432-EP2284151A2
432-EP2284152A2
432-EP2284153A2
432-EP2284155A2
432-EP2284156A2
432-EP2284157A1
432-EP2284159A1
432-EP2284160A1
432-EP2284162A2
432-EP2284163A2
432-EP2284164A2
432-EP2284165A1
432-EP2284169A1
432-EP2284170A1
432-EP2284172A1
432-EP2284178A2
432-EP2284179A2
432-EP2286812A1
432-EP2287140A2
432-EP2287147A2
432-EP2287148A2
432-EP2287150A2
432-EP2287156A1
432-EP2287160A1
432-EP2287161A1
432-EP2287162A1
432-EP2287163A1
432-EP2287165A2
432-EP2287166A2
432-EP2287167A1
432-EP2287940A1
432-EP2289868A1
432-EP2289871A1
432-EP2289879A1
432-EP2289883A1
432-EP2289890A1
432-EP2289892A1
432-EP2289965A1
432-EP2292227A2
432-EP2292228A1
432-EP2292233A2
432-EP2292280A1
432-EP2292590A2
432-EP2292592A1
432-EP2292593A2
432-EP2292597A1
432-EP2292611A1
432-EP2292612A2
432-EP2292614A1
432-EP2292619A1
432-EP2292620A2
432-EP2292622A1
432-EP2295055A2
432-EP2295399A2
432-EP2295402A2
432-EP2295406A1
432-EP2295408A1
432-EP2295409A1
432-EP2295410A1
432-EP2295411A1
432-EP2295412A1
432-EP2295413A1
432-EP2295415A1
432-EP2295416A2
432-EP2295419A2
432-EP2295426A1
432-EP2295427A1
432-EP2295429A1
432-EP2295430A2
432-EP2295431A2
432-EP2295434A2
432-EP2295437A1
432-EP2295438A1
432-EP2295550A2
432-EP2298731A1
432-EP2298732A1
432-EP2298734A2
432-EP2298735A1
432-EP2298742A1
432-EP2298747A1
432-EP2298748A2
432-EP2298764A1
432-EP2298765A1
432-EP2298766A1
432-EP2298770A1
432-EP2298772A1
432-EP2298775A1
432-EP2298783A1
432-EP2298828A1
432-EP2301534A1
432-EP2301536A1
432-EP2301538A1
432-EP2301912A2
432-EP2301913A1
432-EP2301914A1
432-EP2301916A2
432-EP2301919A1
432-EP2301922A1
432-EP2301924A1
432-EP2301929A1
432-EP2301935A1
432-EP2301936A1
432-EP2301937A1
432-EP2301939A1
432-EP2301983A1
432-EP2305243A1
432-EP2305625A1
432-EP2305636A1
432-EP2305637A2
432-EP2305641A1
432-EP2305642A2
432-EP2305648A1
432-EP2305651A1
432-EP2305658A1
432-EP2305659A1
432-EP2305668A1
432-EP2305671A1
432-EP2305674A1
432-EP2305677A1
432-EP2305678A1
432-EP2305679A1
432-EP2305682A1
432-EP2305683A1
432-EP2305688A1
432-EP2305695A2
432-EP2305696A2
432-EP2305697A2
432-EP2305698A2
432-EP2308479A2
432-EP2308492A1
432-EP2308510A1
432-EP2308562A2
432-EP2308812A2
432-EP2308828A2
432-EP2308832A1
432-EP2308838A1
432-EP2308839A1
432-EP2308840A1
432-EP2308844A2
432-EP2308845A2
432-EP2308846A2
432-EP2308854A1
432-EP2308857A1
432-EP2308858A1
432-EP2308861A1
432-EP2308863A1
432-EP2308865A1
432-EP2308867A2
432-EP2308869A1
432-EP2308870A2
432-EP2308872A1
432-EP2308873A1
432-EP2308874A1
432-EP2308875A1
432-EP2308879A1
432-EP2308926A1
432-EP2309564A1
432-EP2311451A1
432-EP2311453A1
432-EP2311455A1
432-EP2311464A1
432-EP2311494A1
432-EP2311796A1
432-EP2311797A1
432-EP2311798A1
432-EP2311799A1
432-EP2311806A2
432-EP2311807A1
432-EP2311809A1
432-EP2311815A1
432-EP2311816A1
432-EP2311817A1
432-EP2311818A1
432-EP2311821A1
432-EP2311823A1
432-EP2311824A1
432-EP2311829A1
432-EP2311831A1
432-EP2311832A1
432-EP2311833A1
432-EP2311835A1
432-EP2311836A1
432-EP2311837A1
432-EP2311839A1
432-EP2311840A1
432-EP2311842A2
432-EP2314571A2
432-EP2314575A1
432-EP2314577A1
432-EP2314582A1
432-EP2314584A1
432-EP2314586A1
432-EP2314588A1
432-EP2314589A1
432-EP2314590A1
432-EP2315303A1
432-EP2316450A1
432-EP2316452A1
432-EP2316470A2
432-EP2316829A1
432-EP2316831A1
432-EP2316832A1
432-EP2316833A1
432-EP2316834A1
432-EP2316835A1
432-EP2316836A1
432-EP2316837A1
432-EP2371797A1
432-EP2371800A1
432-EP2371809A1
432-EP2371811A2
432-EP2372017A1
432-EP2374454A1
432-EP2374783A1
432-EP2374790A1
432-EP2374792A1
432-EP2374895A1
432-EP2377841A1
432-EP2377849A2
432-EP2380568A1
432-EP2380873A1
CS-0015917
E1520
FT-0606483
P0485
1,2-Propanediol, analytical reference material
1,2-Propanediol, tested according to Ph.Eur.
C00583
D00078
1,2-Propanediol, p.a., ACS reagent, 99.5%
1,2-Propanediol, SAJ first grade, >=99.0%
15490-EP2295399A2
15490-EP2305669A1
15490-EP2305683A1
15490-EP2311839A1
15490-EP2314589A1
15490-EP2316837A1
55805-EP2287158A1
55805-EP2298415A1
55805-EP2305033A1
55805-EP2308864A1
69996-EP2308479A2
98469-EP2275417A2
98469-EP2284162A2
98469-EP2284163A2
98469-EP2284174A1
98469-EP2301919A1
98469-EP2374783A1
98469-EP2377841A1
98469-EP2380568A1
MFCD00004539 (97+%)
MFCD00066248 (97+%)
1,2-Propanediol, SAJ special grade, >=99.0%
1,2-Propanediol, Vetec(TM) reagent grade, 98%
135584-EP2287158A1
135584-EP2292608A1
Propylene Glycol, meets USP testing specifications
I14-1669
I14-1679
I14-2780
J-502273
F1908-0071
Z1939437503
1,2-Propanediol, puriss. p.a., ACS reagent, >=99.5% (GC)
Propylene glycol, British Pharmacopoeia (BP) Reference Standard
Poly[oxy(methyl-1,2-ethanediyl)], .alpha.-hydro-.omega.-hydroxy-
Propylene glycol, European Pharmacopoeia (EP) Reference Standard
Propylene glycol, United States Pharmacopeia (USP) Reference Standard
1,2-Propanediol, meets analytical specification of Ph. Eur., BP, USP, >=99.5%
Propylene glycol, Pharmaceutical Secondary Standard; Certified Reference Material

> <TPSA>
40.5

> <TotalAidCount>
918

> <TotalFormalCharge>
0

> <XLogP>
-0.9

> <database>
PubChem Compound

> <matchingCount>
176

> <primaryID>
1030

> <queryTranslation>
7628[CompoundID] OR 244[CompoundID] OR 25059[CompoundID] OR 7618[CompoundID] OR 7641[CompoundID] OR 5053[CompoundID] OR 637511[CompoundID] OR 7714[CompoundID] OR 7762[CompoundID] OR 25429[CompoundID]
OR 8842[CompoundID] OR 7794[CompoundID] OR 637566[CompoundID] OR 7843[CompoundID] OR 174[CompoundID] OR 7870[CompoundID] OR 86102[CompoundID] OR 7888[CompoundID] OR 7896[CompoundID] OR 1140[CompoundID
] OR 8042[CompoundID] OR 8058[CompoundID] OR 8078[CompoundID] OR 8087[CompoundID] OR 8117[CompoundID] OR 8133[CompoundID] OR 115224[CompoundID] OR 8175[CompoundID] OR 8194[CompoundID] OR 445639[Compou
ndID] OR 4944[CompoundID] OR 8294[CompoundID] OR 93541[CompoundID] OR 8360[CompoundID] OR 8363[CompoundID] OR 656612[CompoundID] OR 125098[CompoundID] OR 3352[CompoundID] OR 3303913[CompoundID] OR 648
05[CompoundID] OR 31200[CompoundID] OR 1712058[CompoundID] OR 31236[CompoundID] OR 31239[CompoundID] OR 31265[CompoundID] OR 31266[CompoundID] OR 31276[CompoundID] OR 6950273[CompoundID] OR 518659[Com
poundID] OR 14896[CompoundID] OR 14798[CompoundID] OR 14829[CompoundID] OR 14830[CompoundID] OR 8635[CompoundID] OR 23266[CompoundID] OR 4284[CompoundID] OR 8693[CompoundID] OR 22311[CompoundID] OR 87
59[CompoundID] OR 8785[CompoundID] OR 2723810[CompoundID] OR 8857[CompoundID] OR 3893[CompoundID] OR 9936739[CompoundID] OR 516892[CompoundID] OR 5430[CompoundID] OR 9017[CompoundID] OR 15433[Compound
ID] OR 107720[CompoundID] OR 9552081[CompoundID] OR 164825[CompoundID] OR 10275455[CompoundID] OR 16666[CompoundID] OR 9839306[CompoundID] OR 5282227[CompoundID] OR 23676745[CompoundID] OR 32881[Compo
undID] OR 91581[CompoundID] OR 39800[CompoundID] OR 33344[CompoundID] OR 15962220[CompoundID] OR 33528[CompoundID] OR 5365075[CompoundID] OR 62829[CompoundID] OR 162381[CompoundID] OR 517202[CompoundI
D] OR 6433353[CompoundID] OR 2730[CompoundID] OR 5372405[CompoundID] OR 36081[CompoundID] OR 3120[CompoundID] OR 3017[CompoundID] OR 2969[CompoundID] OR 18827[CompoundID] OR 19518[CompoundID] OR 19658
[CompoundID] OR 38283[CompoundID] OR 2758[CompoundID] OR 10112[CompoundID] OR 10340[CompoundID] OR 712[CompoundID] OR 5794[CompoundID] OR 3347[CompoundID] OR 104150[CompoundID] OR 2912[CompoundID] OR
2450[CompoundID] OR 40326[CompoundID] OR 40585[CompoundID] OR 517055[CompoundID] OR 10913[CompoundID] OR 108242[CompoundID] OR 62097[CompoundID] OR 41679[CompoundID] OR 54680676[CompoundID] OR 62118[C
ompoundID] OR 753[CompoundID] OR 1030[CompoundID] OR 23673837[CompoundID] OR 54678504[CompoundID] OR 11442[CompoundID] OR 11463[CompoundID] OR 22230[CompoundID] OR 440917[CompoundID] OR 6054[CompoundI
D] OR 43234[CompoundID] OR 22629[CompoundID] OR 3039[CompoundID] OR 2735067[CompoundID] OR 6144[CompoundID] OR 702[CompoundID] OR 284[CompoundID] OR 176[CompoundID] OR 91688[CompoundID] OR 22947[Compo
undID] OR 47445[CompoundID] OR 1711973[CompoundID] OR 243[CompoundID] OR 10342051[CompoundID] OR 5281875[CompoundID] OR 3776[CompoundID] OR 6224[CompoundID] OR 104926[CompoundID] OR 8755[CompoundID] O
R 338[CompoundID] OR 123622[CompoundID] OR 23954[CompoundID] OR 6334[CompoundID] OR 2537[CompoundID] OR 24261[CompoundID] OR 23665760[CompoundID] OR 83975[CompoundID] OR 784[CompoundID] OR 24437[Compo
undID] OR 5360315[CompoundID] OR 311[CompoundID] OR 6549[CompoundID] OR 107689[CompoundID] OR 17100[CompoundID] OR 24976875[CompoundID] OR 6654[CompoundID] OR 71245[CompoundID] OR 6442842[CompoundID]
OR 62334[CompoundID] OR 54698175[CompoundID] OR 6328154[CompoundID] OR 24762[CompoundID] OR 440950[CompoundID] OR 7017[CompoundID] OR 5281873[CompoundID] OR 323[CompoundID] OR 5281167[CompoundID] OR 7
175[CompoundID] OR 7292[CompoundID] OR 6335613[CompoundID] OR 7456[CompoundID] OR 7462[CompoundID]

> <resultIndex>
164

> <resultRange>
1-176

> <textQuery>
7628,244,25059,7618,7641,5053,637511,7714,7762,25429,8842,7794,637566,7843,174,7870,86102,7888,7896,1140,8042,8058,8078,8087,8117,8133,115224,8175,8194,445639,4944,8294,93541,8360,8363,656612,125098,3
352,3303913,64805,31200,1712058,31236,31239,31265,31266,31276,6950273,518659,14896,14798,14829,14830,8635,23266,4284,8693,22311,8759,8785,2723810,8857,3893,9936739,516892,5430,9017,15433,107720,955208
1,164825,10275455,16666,9839306,5282227,23676745,32881,91581,39800,33344,15962220,33528,5365075,62829,162381,517202,6433353,2730,5372405,36081,3120,3017,2969,18827,19518,19658,38283,2758,10112,10340,7
12,5794,3347,104150,2912,2450,40326,40585,517055,10913,108242,62097,41679,54680676,62118,753,1030,23673837,54678504,11442,11463,22230,440917,6054,43234,22629,3039,2735067,6144,702,284,176,91688,22947,
47445,1711973,243,10342051,5281875,3776,6224,104926,8755,338,123622,23954,6334,2537,24261,23665760,83975,784,24437,5360315,311,6549,107689,17100,24976875,6654,71245,6442842,62334,54698175,6328154,2476
2,440950,7017,5281873,323,5281167,7175,7292,6335613,7456,7462

$$$$
784
  SciTegic10191915303D

  4  3  0  0  0  0            999 V2000
    0.2750   -0.6660    0.0000 O   0  0
   -0.2750    0.6660    0.0000 O   0  0
    1.2460   -0.6660    0.0000 H   0  0
   -1.2460    0.6660    0.0000 H   0  0
  1  2  1  0
  1  3  1  0
  2  4  1  0
M  END
> <Name>
784

> <OBJECTID>
9223372728347852811

> <ActiveAidCount>
17

> <AtomChiralCount>
0

> <AtomChiralDefCount>
0

> <AtomChiralUndefCount>
0

> <BondChiralCount>
0

> <BondChiralDefCount>
0

> <BondChiralUndefCount>
0

> <CID>
784

> <CanonicalSmiles>
OO

> <Complexity>
0

> <CovalentUnitCount>
1

> <CreateDate>
2004/09/16 00:00

> <HeavyAtomCount>
2

> <HydrogenBondAcceptorCount>
2

> <HydrogenBondDonorCount>
2

> <IUPACName>
hydrogen peroxide

> <InChI>
InChI=1S/H2O2/c1-2/h1-2H

> <InChIKey>
MHAJPDPJQMAIIY-UHFFFAOYSA-N

> <IsomericSmiles>
OO

> <IsotopeAtomCount>
0

> <MeSHHeading>
Hydrogen Peroxide

> <MeSHTerm>
Peroxide, Hydrogen
Superoxol
Hydrogen Peroxide (H2O2)
Oxydol
Perhydrol
Hydrogen Peroxide
Hydroperoxide

> <MolecularFormula>
H2O2

> <MolecularWeight>
34.015

> <PharmAction>
Noxae
Pharmacologic Actions
Specialty Uses of Chemicals
Chemical Actions and Uses
Anti-Infective Agents
Anti-Infective Agents, Local
Therapeutic Uses
Oxidants
Toxic Actions

> <RotatableBondCount>
0

> <Smiles>
OO

> <SourceCategory>
Chemical Vendors
Legacy Depositors
Research and Development
Curation Efforts
Governmental Organizations
Subscription Services
Journal Publishers

> <Synonym>
hydrogen peroxide
7722-84-1
oxydol
perhydrol
Hydrogen dioxide
hydroperoxide
Superoxol
Interox
Dihydrogen dioxide
Inhibine
Peroxaan
Albone
Hioxyl
Kastone
Albone 35
Albone DS
T-Stuff
Lensept
Peroxide
Elawox
Perone
Hydrogen peroxide (H2O2)
Albone 50
Albone 70
Perone 50
Albone 35CG
Albone 50CG
Albone 70CG
H2O2
Peroxan
Hydrogen peroxide, 30%
Hydrogen dioxide solution
Hydrogen peroxide, 90%
Hydrogen peroxide solution
Perone 30
Perone 35
Hydrogen peroxide, solution
Waterstofperoxyde
Hydrogen peroxide, 3%
Wasserstoffperoxid
Caswell No. 486AAA
Peroxyde d'hydrogene
Perossido di idrogeno
dioxidane
Asepticper
Baquashock
Crystacide
Peroxclean
CCRIS 1060
Dentasept
HSDB 547
Hybrite
Metrokur
Mirasept
Oxigenal
Oxyfull
Oxysept
Pegasyl
Puresept
Hipox
Select Bleach
Hydrogen peroxide, solution, 3%
Hydrogen peroxide solution (DOT)
Waterstofperoxyde [Dutch]
Xtra White
Hydrogen peroxide (conc > 52%)
Oxysept I
Hydrogen peroxide solutions
Hydrogen peroxide, solution, 30%
Hydrogen peroxide, solution, 35%
Lensan A
Odosat D
UNII-BBX060AN9V
Adeka Super EL
Wasserstoffperoxid [German]
Crestal Whitestrips
MFCD00011333
UN2014
UN2015
UN2984
EPA Pesticide Chemical Code 000595
Peroxyde d'hydrogene [French]
Anti-Keim 50
Perossido di idrogeno [Italian]
Hydrogen peroxide, 8% to 20%
Hydrogen peroxide, 20% to 60%
Perone 30 Perone 35
Hydrogen peroxide (> 52% conc.)
Hydrogen peroxide [USP]
EINECS 231-765-0
NSC 19892
UN 2015 (>52%)
BBX060AN9V
UN 2984 (8%-20%)
UN 2014 (20%-52%)
Peroxide Ion
CHEBI:16240
Hydrogen peroxide (conc >52%)
Hydrogen peroxide, solution 30%
Hydrogen peroxide solutions (over 8% but not over 60%)
Hydrogen peroxide solutions (over 60% but not over 70%)
Hydrogen peroxide (USP)
PEO
hydrogenperoxide
Accel Concentrate
Astri-UC
HTP [peroxide]
High Test Peroxide
CIX
Hydrogen peroxide, aqueous solutions with >40% but not >60% hydrogen peroxide (stabilized as necessary) [UN2014] [Oxidizer]
Hydrogen peroxide, aqueous solutions with not <20% but not >40% hydrogen peroxide (stabilized as necessary) [UN2014] [Oxidizer]
Hydrogen peroxide, aqueous solutions with not <8% but <20% hydrogen peroxide (stabilized as necessary) [UN2984] [Oxidizer]
Hydrogen peroxide, stabilized or hydrogen peroxide aqueous solutions, stabilized with >60% hydrogen peroxide [UN2015] [Oxidizer]
Teat dip HP 5
Pre milk HP 0.5
Pre milk HP 1.0
Hydrogen peroxide, 3 wt.% solution in water, stabilized
Pre milk HP 0.5 10
Whitespeed
Eskata
Hydrogen peroxide, pure, 50 wt% solution in water, stabilized
Hioxy
High-strength hydrogen peroxide
Magic Bleaching
Clarigel Gold
Lase Peroxide
Quasar Brite
Opalescence Xtra
Whiteness HP
Hydrogen peroxide, ACS reagent, 30 wt% solution in water, nonstabilized
Deslime LP
hydrogen per oxide
dihydrogen peroxide
dihydrogen(peroxide)
Oxyfull (TN)
HOOH
hydrogen hydroperoxide
ACMC-20akqy
Nite White Excel 2
Oxydol (JP17)
UNL-UNL
Hydrogen peroxide 15%
Hydrogen peroxide 35%
Hydrogen peroxide 50%
HYDROGEN-PEROXIDE
Hydrogen peroxide aqueous
Hydrogen Peroxide, 50%
Hydrogen peroxide (8CI)
MolMap_000025
bis(hydridooxygen)(O--O)
EC 231-765-0
HYDROGEN PEROXIDE (CONC > 52 PERCENT)
AC1L1A0N
30 %Hydrogen peroxide(aq)
CHEMBL71595
HYDROGEN PEROXIDE, ACS
[OH(OH)]
DTXSID2020715
Hydrogen peroxide, 6% in water
CTK2H7501
MHAJPDPJQMAIIY-UHFFFAOYSA-N
Hydrogen peroxide (H2O2) (9CI)
NSC19892
WLN: H2 O2 90%
Hydrogen Peroxide [Topical Solution]
NSC-19892
AKOS015856794
DB11091
LS-2428
RL04954
QTL1_000041
8007-30-5
TR-037767
FT-0627133
Hydrogen peroxide 30 % Ph.Eur., stabilized
C00027
D00008
Hydrogen peroxide solution, 3%, for microbiology
Hydrogen peroxide solution, for ultratrace analysis
Hydrogen peroxide solution, extra pure, 30.0-32.0%
Hydrogen peroxide solution, purum p.a., >=30% (RT)
Hydrogen peroxide solution, purum p.a., >=35% (RT)
I14-62939
Hydrogen peroxide solution, >=30%, for trace analysis
Hydrogen peroxide solution, SAJ first grade, >=30.0%
Hydrogen peroxide solution, tested according to Ph.Eur.
Hydrogen peroxide solution, 50 wt. % in H2O, stabilized
Hydrogen peroxide solution, JIS special grade, 30.0-35.5%
Hydrogen peroxide solution, 30 % (w/w) in H2O, contains stabilizer
Hydrogen peroxide solution, contains inhibitor, 35 wt. % in H2O
Hydrogen peroxide solution, p.a., ACS reagent, reag. ISO, 30.0%
Hydrogen peroxide, technical, 35 wt% solution in water, stabilized
Hydrogen Peroxide Solution, 30% (w/w), puriss. p.a., reag. ISO, reag. Ph. Eur.
Hydrogen peroxide solution, AR, contains sodium pyrophosphate as stabilizer, >=30 % (w/v)
Hydrogen peroxide solution, contains ~200 ppm acetanilide as stabilizer, 3 wt. % in H2O
Hydrogen peroxide solution, contains inhibitor, 30 wt. % in H2O, ACS reagent
Hydrogen peroxide solution, LR, contains sodium pyrophosphate as stabilizer, >=30 % (w/v)
Hydrogen peroxide solution, LR, contains sodium pyrophosphate as stabilizer, >=50 % (w/v)
Hydrogen peroxide solution, meets analytical specification of Ph. Nord., 34.5-36.5%
Hydrogen peroxide solution, puriss. p.a., ACS reagent, not stabilized, >=30% (RT)
Hydrogen peroxide solution, semiconductor grade MOS PURANAL(TM) (Honeywell 17937), >=30%
Hydrogen peroxide solution, semiconductor grade PURANAL(TM) (Honeywell 17948), >=30%
Hydrogen peroxide solution, semiconductor grade ULSI PURANAL(TM) (Honeywell 17024), >=30%
Hydrogen peroxide solution, semiconductor grade VLSI PURANAL(TM) (Honeywell 17606), >=30%
Hydrogen peroxide solution, contains inhibitor, 30 wt. % in H2O, meets USP testing specifications
Hydrogen peroxide solution, contains potassium stannate as inhibitor, 30-32 wt. % in water, semiconductor grade, 99.999% trace metals basis
Hydrogen peroxide, aqueous solutions with >40% but not >60% hydrogen peroxide (stabilized as necessary)
Hydrogen peroxide, aqueous solutions with >40% but not >60% hydrogen peroxide (stabilized as necessary) [UN2014] [Oxidizer]
Hydrogen peroxide, aqueous solutions with not <20% but not >40% hydrogen peroxide (stabilized as necessary)
Hydrogen peroxide, aqueous solutions with not <20% but not >40% hydrogen peroxide (stabilized as necessary) [UN2014] [Oxidizer]
Hydrogen peroxide, aqueous solutions with not <8% but <20% hydrogen peroxide (stabilized as necessary)
Hydrogen peroxide, aqueous solutions with not <8% but <20% hydrogen peroxide (stabilized as necessary) [UN2984] [Oxidizer]
Hydrogen peroxide, stabilized or hydrogen peroxide aqueous solutions, stabilized with >60% hydrogen peroxide
Hydrogen peroxide, stabilized or hydrogen peroxide aqueous solutions, stabilized with >60% hydrogen peroxide [UN2015] [Oxidizer]
O-O

> <TPSA>
40.5

> <TotalAidCount>
62

> <TotalFormalCharge>
0

> <XLogP>
-0.9

> <database>
PubChem Compound

> <matchingCount>
176

> <primaryID>
784

> <queryTranslation>
7628[CompoundID] OR 244[CompoundID] OR 25059[CompoundID] OR 7618[CompoundID] OR 7641[CompoundID] OR 5053[CompoundID] OR 637511[CompoundID] OR 7714[CompoundID] OR 7762[CompoundID] OR 25429[CompoundID]
OR 8842[CompoundID] OR 7794[CompoundID] OR 637566[CompoundID] OR 7843[CompoundID] OR 174[CompoundID] OR 7870[CompoundID] OR 86102[CompoundID] OR 7888[CompoundID] OR 7896[CompoundID] OR 1140[CompoundID
] OR 8042[CompoundID] OR 8058[CompoundID] OR 8078[CompoundID] OR 8087[CompoundID] OR 8117[CompoundID] OR 8133[CompoundID] OR 115224[CompoundID] OR 8175[CompoundID] OR 8194[CompoundID] OR 445639[Compou
ndID] OR 4944[CompoundID] OR 8294[CompoundID] OR 93541[CompoundID] OR 8360[CompoundID] OR 8363[CompoundID] OR 656612[CompoundID] OR 125098[CompoundID] OR 3352[CompoundID] OR 3303913[CompoundID] OR 648
05[CompoundID] OR 31200[CompoundID] OR 1712058[CompoundID] OR 31236[CompoundID] OR 31239[CompoundID] OR 31265[CompoundID] OR 31266[CompoundID] OR 31276[CompoundID] OR 6950273[CompoundID] OR 518659[Com
poundID] OR 14896[CompoundID] OR 14798[CompoundID] OR 14829[CompoundID] OR 14830[CompoundID] OR 8635[CompoundID] OR 23266[CompoundID] OR 4284[CompoundID] OR 8693[CompoundID] OR 22311[CompoundID] OR 87
59[CompoundID] OR 8785[CompoundID] OR 2723810[CompoundID] OR 8857[CompoundID] OR 3893[CompoundID] OR 9936739[CompoundID] OR 516892[CompoundID] OR 5430[CompoundID] OR 9017[CompoundID] OR 15433[Compound
ID] OR 107720[CompoundID] OR 9552081[CompoundID] OR 164825[CompoundID] OR 10275455[CompoundID] OR 16666[CompoundID] OR 9839306[CompoundID] OR 5282227[CompoundID] OR 23676745[CompoundID] OR 32881[Compo
undID] OR 91581[CompoundID] OR 39800[CompoundID] OR 33344[CompoundID] OR 15962220[CompoundID] OR 33528[CompoundID] OR 5365075[CompoundID] OR 62829[CompoundID] OR 162381[CompoundID] OR 517202[CompoundI
D] OR 6433353[CompoundID] OR 2730[CompoundID] OR 5372405[CompoundID] OR 36081[CompoundID] OR 3120[CompoundID] OR 3017[CompoundID] OR 2969[CompoundID] OR 18827[CompoundID] OR 19518[CompoundID] OR 19658
[CompoundID] OR 38283[CompoundID] OR 2758[CompoundID] OR 10112[CompoundID] OR 10340[CompoundID] OR 712[CompoundID] OR 5794[CompoundID] OR 3347[CompoundID] OR 104150[CompoundID] OR 2912[CompoundID] OR
2450[CompoundID] OR 40326[CompoundID] OR 40585[CompoundID] OR 517055[CompoundID] OR 10913[CompoundID] OR 108242[CompoundID] OR 62097[CompoundID] OR 41679[CompoundID] OR 54680676[CompoundID] OR 62118[C
ompoundID] OR 753[CompoundID] OR 1030[CompoundID] OR 23673837[CompoundID] OR 54678504[CompoundID] OR 11442[CompoundID] OR 11463[CompoundID] OR 22230[CompoundID] OR 440917[CompoundID] OR 6054[CompoundI
D] OR 43234[CompoundID] OR 22629[CompoundID] OR 3039[CompoundID] OR 2735067[CompoundID] OR 6144[CompoundID] OR 702[CompoundID] OR 284[CompoundID] OR 176[CompoundID] OR 91688[CompoundID] OR 22947[Compo
undID] OR 47445[CompoundID] OR 1711973[CompoundID] OR 243[CompoundID] OR 10342051[CompoundID] OR 5281875[CompoundID] OR 3776[CompoundID] OR 6224[CompoundID] OR 104926[CompoundID] OR 8755[CompoundID] O
R 338[CompoundID] OR 123622[CompoundID] OR 23954[CompoundID] OR 6334[CompoundID] OR 2537[CompoundID] OR 24261[CompoundID] OR 23665760[CompoundID] OR 83975[CompoundID] OR 784[CompoundID] OR 24437[Compo
undID] OR 5360315[CompoundID] OR 311[CompoundID] OR 6549[CompoundID] OR 107689[CompoundID] OR 17100[CompoundID] OR 24976875[CompoundID] OR 6654[CompoundID] OR 71245[CompoundID] OR 6442842[CompoundID]
OR 62334[CompoundID] OR 54698175[CompoundID] OR 6328154[CompoundID] OR 24762[CompoundID] OR 440950[CompoundID] OR 7017[CompoundID] OR 5281873[CompoundID] OR 323[CompoundID] OR 5281167[CompoundID] OR 7
175[CompoundID] OR 7292[CompoundID] OR 6335613[CompoundID] OR 7456[CompoundID] OR 7462[CompoundID]

> <resultIndex>
165

> <resultRange>
1-176

> <textQuery>
7628,244,25059,7618,7641,5053,637511,7714,7762,25429,8842,7794,637566,7843,174,7870,86102,7888,7896,1140,8042,8058,8078,8087,8117,8133,115224,8175,8194,445639,4944,8294,93541,8360,8363,656612,125098,3
352,3303913,64805,31200,1712058,31236,31239,31265,31266,31276,6950273,518659,14896,14798,14829,14830,8635,23266,4284,8693,22311,8759,8785,2723810,8857,3893,9936739,516892,5430,9017,15433,107720,955208
1,164825,10275455,16666,9839306,5282227,23676745,32881,91581,39800,33344,15962220,33528,5365075,62829,162381,517202,6433353,2730,5372405,36081,3120,3017,2969,18827,19518,19658,38283,2758,10112,10340,7
12,5794,3347,104150,2912,2450,40326,40585,517055,10913,108242,62097,41679,54680676,62118,753,1030,23673837,54678504,11442,11463,22230,440917,6054,43234,22629,3039,2735067,6144,702,284,176,91688,22947,
47445,1711973,243,10342051,5281875,3776,6224,104926,8755,338,123622,23954,6334,2537,24261,23665760,83975,784,24437,5360315,311,6549,107689,17100,24976875,6654,71245,6442842,62334,54698175,6328154,2476
2,440950,7017,5281873,323,5281167,7175,7292,6335613,7456,7462

$$$$
753
  SciTegic10191915303D

 14 13  0  0  0  0            999 V2000
    2.1840   -1.0040   -0.0940 O   0  0
    0.7730   -1.0040   -0.0940 C   0  0
    0.2950    0.4470   -0.0940 C   0  0
    0.6230    1.0190   -1.3400 O   0  0
   -1.2170    0.5700    0.1080 C   0  0
   -1.5220    0.1740    1.4240 O   0  0
    2.4690   -1.9320   -0.0940 H   0  0
    0.4340   -1.5220   -0.9900 H   0  0
    0.4340   -1.5220    0.8050 H   0  0
    0.7990    1.0190    0.6860 H   0  0
    0.4980    1.9780   -1.2540 H   0  0
   -1.5390    1.6050   -0.0190 H   0  0
   -1.7500   -0.0880   -0.5780 H   0  0
   -2.4810    0.2580    1.5330 H   0  0
  1  2  1  0
  2  3  1  0
  3  4  1  0
  3  5  1  0
  5  6  1  0
  1  7  1  0
  2  8  1  0
  2  9  1  0
  3 10  1  0
  4 11  1  0
  5 12  1  0
  5 13  1  0
  6 14  1  0
M  END
> <Name>
753

> <OBJECTID>
9223372732642820107

> <ActiveAidCount>
2

> <AtomChiralCount>
0

> <AtomChiralDefCount>
0

> <AtomChiralUndefCount>
0

> <BondChiralCount>
0

> <BondChiralDefCount>
0

> <BondChiralUndefCount>
0

> <CID>
753

> <CanonicalSmiles>
C(C(CO)O)O

> <Complexity>
25.2

> <CovalentUnitCount>
1

> <CreateDate>
2004/09/16 00:00

> <HeavyAtomCount>
6

> <HydrogenBondAcceptorCount>
3

> <HydrogenBondDonorCount>
3

> <IUPACName>
propane-1,2,3-triol

> <InChI>
InChI=1S/C3H8O3/c4-1-3(6)2-5/h3-6H,1-2H2

> <InChIKey>
PEDCQBHIVMGVHV-UHFFFAOYSA-N

> <IsomericSmiles>
C(C(CO)O)O

> <IsotopeAtomCount>
0

> <MeSHHeading>
Glycerol

> <MeSHTerm>
Glycerin
Glycerine
1,2,3-Trihydroxypropane
Glycerol

> <MolecularFormula>
C3H8O3

> <MolecularWeight>
92.09

> <PharmAction>
Cryoprotective Agents
Solvents
Chemical Actions and Uses
Physiological Effects of Drugs
Protective Agents
Specialty Uses of Chemicals
Pharmacologic Actions

> <RotatableBondCount>
2

> <Smiles>
OCC(CO)O

> <SourceCategory>
Chemical Vendors
Legacy Depositors
Research and Development
Curation Efforts
Governmental Organizations
NIH Initiatives
Subscription Services
Journal Publishers

> <Synonym>
glycerol
glycerin
Glycerine
56-81-5
1,2,3-Propanetriol
PROPANE-1,2,3-TRIOL
Glycyl alcohol
Trihydroxypropane
Glyceritol
Propanetriol
Osmoglyn
1,2,3-trihydroxypropane
Grocolene
Glysanin
Glyrol
Glycerin, synthetic
Dagralax
Ophthalgan
Vitrosupos
Glycerin, anhydrous
Synthetic glycerin
Polyglycerine
Glycerinum
Polyglycerol
Synthetic glycerine
Optim
Moon
Star
Glycerin mist
Incorporation factor
Glycerin (mist)
90 Technical glycerine
Glycerine mist
Citifluor AF 2
Glycerolum
Bulbold
Cristal
Glicerina [DCIT]
Glycerol polymer
Caswell No. 469
Polyglycerin
Propanetriol (VAN)
Glycerin base
Glicerol [INN-Spanish]
Glycerolum [INN-Latin]
Glycerin [JAN]
Clyzerin, wasserfrei
Unigly G 2
Unigly G 6
Pricerine 9091
Clyzerin, wasserfrei [German]
Emery 916
FEMA No. 2525
CCRIS 2295
Glyzerin
HSDB 492
EPA Pesticide Chemical Code 063507
25618-55-7
1,2,3-PROPANETRIOL, HOMOPOLYMER
UNII-PDC6A3C0OX
Collyrium Fresh-Eye Drops
AI3-00091
Glycerin, natural
NSC 9230
Glycerol, polymers
MFCD00004722
BRN 0635685
IFP
PGL 300
PGL 500
PGL 700
Monoctanoin Component D
PEDCQBHIVMGVHV-UHFFFAOYSA-N
HL 80
EINECS 200-289-5
PDC6A3C0OX
1,2,3-trihydroxypropanol
CHEBI:17754
Glycerin anhydrous
NSC9230
Glycerol (INN)
Glycerol [INN]
8043-29-6
NCGC00090950-03
DSSTox_CID_662
DSSTox_RID_75717
GLYCEROL, ULTRA PURE
DSSTox_GSID_20663
Glycerol, 99+%, extra pure
Glycerol; Propane-1,2,3-Triol
Glycerol, 99.6%, ACS reagent
Glicerina
Glicerol
Glycerol, 99+%, pure, synthetic
Glycerol, ACS reagent, >=99.5%
Glyceol Opthalgan
Glycerol, 99.5+%, for spectroscopy
Glycerin - mist
Tegin M
CAS-56-81-5
Glycerolglycerin; Propane-1,2,3-Triol
GOL
Mackstat H 66
WURCS=2.0/1,1,0/[h2h]/1/
Glycerin [USP:JAN]
Glycerol, pure, 83.5-88.5 wt% aqueous solution
RG-S
Glycerol, for analysis, 86-88% wt% aqueous solution
UNII-F92TF92VBF
alditol
Glycerin - mist, Respirable
Neutracett
Glyceol
Oelsuess
glycerine usp
Olsuss
Artifical tears
UNII-522DM106CR
C3H8O3
D-glycerol
L-glycerol
Tryhydroxypropane
Organic Glycerin
Organic Glycerine
Glycerin,anhydrous
Glycerine (crude)
Polyhydric alcohols
1,3-Propanetriol
Glycerol homopolymer
Glycerol, ultrapure
Glycerin USP grade
Glycerine 96%
Glycerin 99.5%
Glycerine 96% USP
1,3-Trihydroxypropane
90 Technical glycerin
Emery 912
PubChem16092
rac-Glycerol-1-13C
ACMC-20akt3
AC1Q7BQW
E 422
Glycerin (JP17/USP)
Glycerin 99.5% USP
GLYCEROL, C.P.
Glycerine 99.7% USP
bmse000184
bmse000807
bmse000856
CHEMBL692
MolMap_000024
EC 200-289-5
EC 607-759-2
GLYCERIN, U.S.P.
Glycerol, >=99.5%
Glycerin Reagent Grade ACS
WLN: Q1YQ1Q
F92TF92VBF
Glycerine (Fragrance Grade)
2-hydroxylpropane-1,3-diol
Glycerol, LR, >=98%
Glycerol, analytical standard
4-01-00-02751 (Beilstein Handbook Reference)
Glycerol, Cell Culture Grade
KSC221G6P
Glycerin, concentrated (JAN)
Concentrated glycerin (JP17)
Glycerol 3 M solution, 3 M
Glycerol, >=99% (GC)
AC1L19Y5
GTPL5195
QSPL 181
1,2,3-Propanetriol homopolymer
DTXSID9020663
Glycerol, AR, >=99.5%
CHEBI:17522
CTK1C1367
Glycerol, >99%, FCC, FG
Glycerol, technical grade, 95%
KS-00000XBN
Glycerol, ultrapure, HPLC Grade
2w97
Glycerol, ACS reagent, 99.5%
Glycerol, Molecular Biology Grade
522DM106CR
Pharmakon1600-01300020
ZINC895048
Glycerol, Vetec(TM) reagent grade
Glycerol solution, 86-89% (T)
HY-B1659
NSC-9230
Glycerine 912 (96% CP/USP)
Tox21_111043
Tox21_202077
Tox21_300144
c0066
Glycerol, BioXtra, >=99% (GC)
Glycerol, ReagentPlus(R), >=99%
NSC759633
STL199174
AKOS000120102
CS-6964
DB09462
Glycerol, USP, 99.0-101.0%
LS-1377
LS-3195
MCULE-6349111826
NSC-759633
RP18557
RTR-037117
TRA0028502
GLYCERIN; PROPANE-1,2,3-TRIOL
Glycerol, SAJ first grade, >=98.0%
NCGC00090950-01
NCGC00090950-02
NCGC00090950-04
NCGC00090950-05
NCGC00253975-01
NCGC00259626-01
AN-17798
AN-23563
BP-31039
E422
Glycerol, for molecular biology, >=99%
Glycerol, JIS special grade, >=99.0%
Glycerol, Vetec(TM) reagent grade, 99%
LS-72131
SC-13789
ZB014965
Glycerin, meets USP testing specifications
Glycerol min. 98 %, Ph.Eur., anhydrous
32-EP2269610A2
32-EP2269978A2
32-EP2269985A2
32-EP2269991A2
32-EP2269994A1
32-EP2269996A1
32-EP2270001A1
32-EP2270002A1
32-EP2270004A1
32-EP2270007A1
32-EP2270008A1
32-EP2270011A1
32-EP2270895A2
32-EP2272510A1
32-EP2272516A2
32-EP2272537A2
32-EP2272822A1
32-EP2272825A2
32-EP2272827A1
32-EP2272834A1
32-EP2272972A1
32-EP2272973A1
32-EP2275105A1
32-EP2275413A1
32-EP2275414A1
32-EP2275417A2
32-EP2275419A2
32-EP2275420A1
32-EP2277565A2
32-EP2277566A2
32-EP2277567A1
32-EP2277568A2
32-EP2277569A2
32-EP2277570A2
32-EP2277861A1
32-EP2277865A1
32-EP2277867A2
32-EP2277872A1
32-EP2277898A2
32-EP2278637A1
32-EP2279741A2
32-EP2279750A1
32-EP2280002A1
32-EP2280003A2
32-EP2280005A1
32-EP2280008A2
32-EP2280010A2
32-EP2280011A1
32-EP2280014A2
32-EP2281563A1
32-EP2281823A2
32-EP2281899A2
32-EP2283811A1
32-EP2283898A1
32-EP2284146A2
32-EP2284147A2
32-EP2284149A1
32-EP2284150A2
32-EP2284151A2
32-EP2284152A2
32-EP2284153A2
32-EP2284155A2
32-EP2284156A2
32-EP2284157A1
32-EP2284160A1
32-EP2284162A2
32-EP2284163A2
32-EP2284164A2
32-EP2284165A1
32-EP2284178A2
32-EP2284179A2
32-EP2286812A1
32-EP2287140A2
32-EP2287147A2
32-EP2287148A2
32-EP2287150A2
32-EP2287152A2
32-EP2287156A1
32-EP2287167A1
32-EP2287168A2
32-EP2289510A1
32-EP2289518A1
32-EP2289871A1
32-EP2289879A1
32-EP2289883A1
32-EP2289884A1
32-EP2289890A1
32-EP2289892A1
32-EP2292227A2
32-EP2292228A1
32-EP2292231A1
32-EP2292234A1
32-EP2292280A1
32-EP2292590A2
32-EP2292593A2
32-EP2292612A2
32-EP2292615A1
32-EP2292617A1
32-EP2292622A1
32-EP2295053A1
32-EP2295402A2
32-EP2295406A1
32-EP2295409A1
32-EP2295410A1
32-EP2295411A1
32-EP2295417A1
32-EP2295418A1
32-EP2295419A2
32-EP2295424A1
32-EP2295426A1
32-EP2295427A1
32-EP2295429A1
32-EP2295434A2
32-EP2295437A1
32-EP2295438A1
32-EP2295439A1
32-EP2295550A2
32-EP2298312A1
32-EP2298313A1
32-EP2298415A1
32-EP2298732A1
32-EP2298734A2
32-EP2298746A1
32-EP2298750A1
32-EP2298764A1
32-EP2298765A1
32-EP2298766A1
32-EP2298770A1
32-EP2298772A1
32-EP2298775A1
32-EP2298828A1
32-EP2301534A1
32-EP2301536A1
32-EP2301538A1
32-EP2301627A1
32-EP2301912A2
32-EP2301913A1
32-EP2301914A1
32-EP2301916A2
32-EP2301919A1
32-EP2301929A1
32-EP2301931A1
32-EP2301933A1
32-EP2301935A1
32-EP2301937A1
32-EP2301939A1
32-EP2301941A1
32-EP2302015A1
32-EP2305243A1
32-EP2305250A1
32-EP2305633A1
32-EP2305636A1
32-EP2305637A2
32-EP2305643A1
32-EP2305648A1
32-EP2305651A1
32-EP2305657A2
32-EP2305662A1
32-EP2305668A1
32-EP2305669A1
32-EP2305674A1
32-EP2305677A1
32-EP2305682A1
32-EP2305825A1
32-EP2308812A2
32-EP2308832A1
32-EP2308838A1
32-EP2308839A1
32-EP2308840A1
32-EP2308847A1
32-EP2308851A1
32-EP2308854A1
32-EP2308855A1
32-EP2308857A1
32-EP2308861A1
32-EP2308863A1
32-EP2308865A1
32-EP2308872A1
32-EP2308873A1
32-EP2308875A1
32-EP2308879A1
32-EP2308883A1
32-EP2308960A1
32-EP2311451A1
32-EP2311455A1
32-EP2311796A1
32-EP2311797A1
32-EP2311798A1
32-EP2311799A1
32-EP2311806A2
32-EP2311807A1
32-EP2311809A1
32-EP2311824A1
32-EP2311825A1
32-EP2311827A1
32-EP2311829A1
32-EP2311831A1
32-EP2311836A1
32-EP2311837A1
32-EP2311842A2
32-EP2314295A1
32-EP2314571A2
32-EP2314576A1
32-EP2314577A1
32-EP2314584A1
32-EP2314588A1
32-EP2314590A1
32-EP2314591A1
32-EP2316450A1
32-EP2316452A1
32-EP2316457A1
32-EP2316458A1
32-EP2316459A1
32-EP2316470A2
32-EP2316825A1
32-EP2316826A1
32-EP2316827A1
32-EP2316828A1
32-EP2316829A1
32-EP2316831A1
32-EP2316832A1
32-EP2316833A1
32-EP2316834A1
32-EP2316835A1
32-EP2316836A1
32-EP2371802A1
32-EP2373603A1
32-EP2374454A1
32-EP2374792A1
32-EP2377842A1
32-EP2380872A1
TR-037117
599-EP2269996A1
599-EP2270101A1
599-EP2270505A1
599-EP2272847A1
599-EP2275417A2
599-EP2284162A2
599-EP2284163A2
599-EP2284169A1
599-EP2284170A1
599-EP2284172A1
599-EP2284178A2
599-EP2284179A2
599-EP2287161A1
599-EP2287162A1
599-EP2289892A1
599-EP2292227A2
599-EP2295410A1
599-EP2295433A2
599-EP2301939A1
599-EP2305660A1
599-EP2305825A1
599-EP2308861A1
599-EP2308867A2
599-EP2308870A2
599-EP2311494A1
599-EP2311815A1
599-EP2311824A1
599-EP2311835A1
599-EP2311840A1
599-EP2311842A2
599-EP2374783A1
599-EP2377841A1
599-EP2377842A1
599-EP2380568A1
650-EP2269978A2
650-EP2269985A2
650-EP2269991A2
650-EP2272817A1
650-EP2272848A1
650-EP2272849A1
650-EP2274983A1
650-EP2275102A1
650-EP2275417A2
650-EP2275469A1
650-EP2277848A1
650-EP2277861A1
650-EP2277877A1
650-EP2277879A1
650-EP2277880A1
650-EP2277881A1
650-EP2280002A1
650-EP2284150A2
650-EP2284151A2
650-EP2284152A2
650-EP2284153A2
650-EP2284155A2
650-EP2284156A2
650-EP2284162A2
650-EP2284163A2
650-EP2284164A2
650-EP2284166A1
650-EP2284169A1
650-EP2287140A2
650-EP2287148A2
650-EP2287150A2
650-EP2287152A2
650-EP2287155A1
650-EP2287158A1
650-EP2287160A1
650-EP2287161A1
650-EP2287162A1
650-EP2287165A2
650-EP2287166A2
650-EP2287167A1
650-EP2287940A1
650-EP2289868A1
650-EP2289871A1
650-EP2289965A1
650-EP2292227A2
650-EP2292233A2
650-EP2292590A2
650-EP2292593A2
650-EP2292597A1
650-EP2292610A1
650-EP2292611A1
650-EP2292620A2
650-EP2292630A1
650-EP2295055A2
650-EP2295414A1
650-EP2295415A1
650-EP2295416A2
650-EP2295419A2
650-EP2295422A2
650-EP2295426A1
650-EP2295427A1
650-EP2295433A2
650-EP2295438A1
650-EP2298305A1
650-EP2298731A1
650-EP2298732A1
650-EP2298735A1
650-EP2298748A2
650-EP2298762A2
650-EP2298767A1
650-EP2298769A1
650-EP2298770A1
650-EP2301534A1
650-EP2301536A1
650-EP2301538A1
650-EP2301540A1
650-EP2301912A2
650-EP2301913A1
650-EP2301914A1
650-EP2301916A2
650-EP2301938A1
650-EP2301983A1
650-EP2305033A1
650-EP2305243A1
650-EP2305625A1
650-EP2305637A2
650-EP2305654A1
650-EP2305668A1
650-EP2305673A1
650-EP2308510A1
650-EP2308562A2
650-EP2308832A1
650-EP2308838A1
650-EP2308857A1
650-EP2308861A1
650-EP2308862A1
650-EP2308863A1
650-EP2308866A1
650-EP2308878A2
650-EP2308926A1
650-EP2309564A1
650-EP2311451A1
650-EP2311453A1
650-EP2311455A1
650-EP2311464A1
650-EP2311796A1
650-EP2311797A1
650-EP2311798A1
650-EP2311799A1
650-EP2311806A2
650-EP2311814A1
650-EP2311821A1
650-EP2311823A1
650-EP2311832A1
650-EP2311833A1
650-EP2311834A1
650-EP2311840A1
650-EP2311842A2
650-EP2314295A1
650-EP2314575A1
650-EP2314580A1
650-EP2314582A1
650-EP2314584A1
650-EP2314587A1
650-EP2316450A1
650-EP2316452A1
650-EP2316470A2
650-EP2316832A1
650-EP2316833A1
650-EP2371809A1
650-EP2371811A2
650-EP2372017A1
650-EP2374787A1
650-EP2374790A1
650-EP2374895A1
650-EP2377848A1
650-EP2380568A1
FT-0626742
FT-0697060
G0316
Glycerol, ultrapure, Spectrophotometric Grade
S0373
Glycerol, ReagentPlus(R), >=99.0% (GC)
Glycerol, spectrophotometric grade, >=99.5%
3114-EP2284146A2
3114-EP2284147A2
3114-EP2295399A2
C00116
D00028
81753-EP2275417A2
81753-EP2284162A2
81753-EP2284163A2
81753-EP2305687A1
A831186
Glycerol solution, puriss. p.a., 86-89% (T)
Glycerol, tested according to Ph.Eur., anhydrous
I14-2731
BRD-K73866522-001-02-6
Glycerol-Gelatine, for mounting (histochemical slides)
F0001-1470
8DFDFCD7-1ED2-4373-845E-054F5AD00089
InChI=1/C3H8O3/c4-1-3(6)2-5/h3-6H,1-2H
UNII-VFU0OU98LO component PEDCQBHIVMGVHV-UHFFFAOYSA-N
Glycerin, United States Pharmacopeia (USP) Reference Standard
Glycerin, Pharmaceutical Secondary Standard; Certified Reference Material
Glycerol, 99.5%, for molecular biology, DNAse, RNAse and Protease free
Glycerol, BioUltra, for molecular biology, anhydrous, >=99.5% (GC)
Glycerol, p.a., ACS reagent, reag. ISO, reag. Ph. Eur., 98.0-101.0%
Glycerol, puriss. p.a., ACS reagent, anhydrous, dist., >=99.5% (GC)
ASTM(R) D6584 Glycerin solution, 500 mug/mL in pyridine, analytical standard
ASTM(R) D6584 Glycerin solution, certified reference material, 500 mug/mL in pyridine
Glycerol solution, puriss., meets analytical specification of Ph.??Eur., BP, 84-88%
30918-77-5
98292-00-3
CRY
Glycerol, BioReagent, suitable for cell culture, suitable for insect cell culture, suitable for electrophoresis, >=99% (GC)
Glycerol, polymer-bound, extent of labeling: 1-2 mmol/g glycerol loading, 1 % cross-linked with divinylbenzene
Glycerol, puriss., meets analytical specification of Ph. Eur., BP, USP, FCC, E422, anhydrous, 99.0-101.0% (alkalimetric)

> <TPSA>
60.7

> <TotalAidCount>
426

> <TotalFormalCharge>
0

> <XLogP>
-1.8

> <database>
PubChem Compound

> <matchingCount>
176

> <primaryID>
753

> <queryTranslation>
7628[CompoundID] OR 244[CompoundID] OR 25059[CompoundID] OR 7618[CompoundID] OR 7641[CompoundID] OR 5053[CompoundID] OR 637511[CompoundID] OR 7714[CompoundID] OR 7762[CompoundID] OR 25429[CompoundID]
OR 8842[CompoundID] OR 7794[CompoundID] OR 637566[CompoundID] OR 7843[CompoundID] OR 174[CompoundID] OR 7870[CompoundID] OR 86102[CompoundID] OR 7888[CompoundID] OR 7896[CompoundID] OR 1140[CompoundID
] OR 8042[CompoundID] OR 8058[CompoundID] OR 8078[CompoundID] OR 8087[CompoundID] OR 8117[CompoundID] OR 8133[CompoundID] OR 115224[CompoundID] OR 8175[CompoundID] OR 8194[CompoundID] OR 445639[Compou
ndID] OR 4944[CompoundID] OR 8294[CompoundID] OR 93541[CompoundID] OR 8360[CompoundID] OR 8363[CompoundID] OR 656612[CompoundID] OR 125098[CompoundID] OR 3352[CompoundID] OR 3303913[CompoundID] OR 648
05[CompoundID] OR 31200[CompoundID] OR 1712058[CompoundID] OR 31236[CompoundID] OR 31239[CompoundID] OR 31265[CompoundID] OR 31266[CompoundID] OR 31276[CompoundID] OR 6950273[CompoundID] OR 518659[Com
poundID] OR 14896[CompoundID] OR 14798[CompoundID] OR 14829[CompoundID] OR 14830[CompoundID] OR 8635[CompoundID] OR 23266[CompoundID] OR 4284[CompoundID] OR 8693[CompoundID] OR 22311[CompoundID] OR 87
59[CompoundID] OR 8785[CompoundID] OR 2723810[CompoundID] OR 8857[CompoundID] OR 3893[CompoundID] OR 9936739[CompoundID] OR 516892[CompoundID] OR 5430[CompoundID] OR 9017[CompoundID] OR 15433[Compound
ID] OR 107720[CompoundID] OR 9552081[CompoundID] OR 164825[CompoundID] OR 10275455[CompoundID] OR 16666[CompoundID] OR 9839306[CompoundID] OR 5282227[CompoundID] OR 23676745[CompoundID] OR 32881[Compo
undID] OR 91581[CompoundID] OR 39800[CompoundID] OR 33344[CompoundID] OR 15962220[CompoundID] OR 33528[CompoundID] OR 5365075[CompoundID] OR 62829[CompoundID] OR 162381[CompoundID] OR 517202[CompoundI
D] OR 6433353[CompoundID] OR 2730[CompoundID] OR 5372405[CompoundID] OR 36081[CompoundID] OR 3120[CompoundID] OR 3017[CompoundID] OR 2969[CompoundID] OR 18827[CompoundID] OR 19518[CompoundID] OR 19658
[CompoundID] OR 38283[CompoundID] OR 2758[CompoundID] OR 10112[CompoundID] OR 10340[CompoundID] OR 712[CompoundID] OR 5794[CompoundID] OR 3347[CompoundID] OR 104150[CompoundID] OR 2912[CompoundID] OR
2450[CompoundID] OR 40326[CompoundID] OR 40585[CompoundID] OR 517055[CompoundID] OR 10913[CompoundID] OR 108242[CompoundID] OR 62097[CompoundID] OR 41679[CompoundID] OR 54680676[CompoundID] OR 62118[C
ompoundID] OR 753[CompoundID] OR 1030[CompoundID] OR 23673837[CompoundID] OR 54678504[CompoundID] OR 11442[CompoundID] OR 11463[CompoundID] OR 22230[CompoundID] OR 440917[CompoundID] OR 6054[CompoundI
D] OR 43234[CompoundID] OR 22629[CompoundID] OR 3039[CompoundID] OR 2735067[CompoundID] OR 6144[CompoundID] OR 702[CompoundID] OR 284[CompoundID] OR 176[CompoundID] OR 91688[CompoundID] OR 22947[Compo
undID] OR 47445[CompoundID] OR 1711973[CompoundID] OR 243[CompoundID] OR 10342051[CompoundID] OR 5281875[CompoundID] OR 3776[CompoundID] OR 6224[CompoundID] OR 104926[CompoundID] OR 8755[CompoundID] O
R 338[CompoundID] OR 123622[CompoundID] OR 23954[CompoundID] OR 6334[CompoundID] OR 2537[CompoundID] OR 24261[CompoundID] OR 23665760[CompoundID] OR 83975[CompoundID] OR 784[CompoundID] OR 24437[Compo
undID] OR 5360315[CompoundID] OR 311[CompoundID] OR 6549[CompoundID] OR 107689[CompoundID] OR 17100[CompoundID] OR 24976875[CompoundID] OR 6654[CompoundID] OR 71245[CompoundID] OR 6442842[CompoundID]
OR 62334[CompoundID] OR 54698175[CompoundID] OR 6328154[CompoundID] OR 24762[CompoundID] OR 440950[CompoundID] OR 7017[CompoundID] OR 5281873[CompoundID] OR 323[CompoundID] OR 5281167[CompoundID] OR 7
175[CompoundID] OR 7292[CompoundID] OR 6335613[CompoundID] OR 7456[CompoundID] OR 7462[CompoundID]

> <resultIndex>
166

> <resultRange>
1-176

> <textQuery>
7628,244,25059,7618,7641,5053,637511,7714,7762,25429,8842,7794,637566,7843,174,7870,86102,7888,7896,1140,8042,8058,8078,8087,8117,8133,115224,8175,8194,445639,4944,8294,93541,8360,8363,656612,125098,3
352,3303913,64805,31200,1712058,31236,31239,31265,31266,31276,6950273,518659,14896,14798,14829,14830,8635,23266,4284,8693,22311,8759,8785,2723810,8857,3893,9936739,516892,5430,9017,15433,107720,955208
1,164825,10275455,16666,9839306,5282227,23676745,32881,91581,39800,33344,15962220,33528,5365075,62829,162381,517202,6433353,2730,5372405,36081,3120,3017,2969,18827,19518,19658,38283,2758,10112,10340,7
12,5794,3347,104150,2912,2450,40326,40585,517055,10913,108242,62097,41679,54680676,62118,753,1030,23673837,54678504,11442,11463,22230,440917,6054,43234,22629,3039,2735067,6144,702,284,176,91688,22947,
47445,1711973,243,10342051,5281875,3776,6224,104926,8755,338,123622,23954,6334,2537,24261,23665760,83975,784,24437,5360315,311,6549,107689,17100,24976875,6654,71245,6442842,62334,54698175,6328154,2476
2,440950,7017,5281873,323,5281167,7175,7292,6335613,7456,7462

$$$$
712
  SciTegic10191915303D

  4  3  0  0  0  0            999 V2000
   -0.0330    0.0000    0.0000 C   0  0
    1.1760    0.0000    0.0000 O   0  0
   -0.5710   -0.9360    0.0000 H   0  0
   -0.5710    0.9360    0.0000 H   0  0
  1  2  2  0
  1  3  1  0
  1  4  1  0
M  END
> <Name>
712

> <OBJECTID>
9223372736937787403

> <ActiveAidCount>
10

> <AtomChiralCount>
0

> <AtomChiralDefCount>
0

> <AtomChiralUndefCount>
0

> <BondChiralCount>
0

> <BondChiralDefCount>
0

> <BondChiralUndefCount>
0

> <CID>
712

> <CanonicalSmiles>
C=O

> <Complexity>
2

> <CovalentUnitCount>
1

> <CreateDate>
2004/09/16 00:00

> <HeavyAtomCount>
2

> <HydrogenBondAcceptorCount>
1

> <HydrogenBondDonorCount>
0

> <IUPACName>
formaldehyde

> <InChI>
InChI=1S/CH2O/c1-2/h1H2

> <InChIKey>
WSFSSNUMVMOOMR-UHFFFAOYSA-N

> <IsomericSmiles>
C=O

> <IsotopeAtomCount>
0

> <MeSHHeading>
Formaldehyde

> <MeSHTerm>
Formaldehyde
Formalin
Formol
Oxomethane
Methanal

> <MolecularFormula>
CH2O

> <MolecularWeight>
30.026

> <PharmAction>
Pharmacologic Actions
Chemical Actions and Uses
Therapeutic Uses
Disinfectants
Specialty Uses of Chemicals
Fixatives
Anti-Infective Agents

> <RotatableBondCount>
0

> <Smiles>
C=O

> <SourceCategory>
Chemical Vendors
Legacy Depositors
Research and Development
Curation Efforts
Governmental Organizations
NIH Initiatives
Subscription Services
Journal Publishers

> <Synonym>
formaldehyde
formalin
methanal
formol
Paraformaldehyde
50-00-0
Methylene oxide
Oxomethane
Paraform
Formic aldehyde
Oxymethylene
Methyl aldehyde
Fannoform
Formalith
Formaldehyde solution
Methaldehyde
Superlysoform
Formalina
Lysoform
Morbicid
Karsan
Formaldehyd
Formaline
Oxomethylene
Polyoxymethylene
Aldehyde formique
FYDE
Formaldehyde, gas
Formalin 40
Aldeide formica
30525-89-4
Oplossingen
Dormol
Polyformaldehyde
Formalin-loesungen
Paraformic aldehyde
Rcra waste number U122
Aldacide
Aldehyd mravenci
Paraformaldehydum
Oilstop, Halowax
Flo-Mor
CH2O
UN 2209 (formalin)
Formaldehyde (gas)
Formaldehyde polymer
Formaline [German]
NCI-C02799
Formalina [Italian]
Oplossingen [Dutch]
HCHO
Caswell No. 465
Caswell No. 633
FORMYL GROUP
Polyoxymethylene glycol
Polymerised formaldehyde
Fordor
UN 1198
Aldehyd mravenci [Czech]
POLY(OXYMETHYLENE)
Aldeide formica [Italian]
Aldehyde formique [French]
Formalin-loesungen [German]
Formaldehyd [Czech, Polish]
CCRIS 315
NSC 298885
Formaldehyde [USP]
HSDB 164
Aldehyde formique [ISO-French]
BFV
Formaldehyde, solution
UNII-1HG84L3525
CHEBI:16842
AI3-26806
HSDB 4070
Paraformaldehyde, polymer
UN1198
UN2209
UN2213
RCRA waste no. U122
EPA Pesticide Chemical Code 043001
EPA Pesticide Chemical Code 043002
Formalin Solution
UGFAIRIUMAVXCW-UHFFFAOYSA-N
WSFSSNUMVMOOMR-UHFFFAOYSA-N
Formaldehyde, Para
Formaldehyde (USP)
MFCD00003274
1HG84L3525
Formaldehyde, solution (37% to 50%)
Formalde-Fresh Solution
DSSTox_CID_637
Formalin, Buffered, 10%
DSSTox_RID_82549
DSSTox_GSID_47796
CAS-NOCAS_47796
Formaldehyde, 37% by Weight
Formaldehyde, 40% by Volume
Paraformaldehyde, 90%, pure
Formaldehyd (CZECH, POLISH)
Formalde-Fresh Solution, Buffered
Formalaz
Formaldehyde, solutions, flammable [UN1198] [Flammable liquid]
MFCD00133991
Formaldehyde, solutions with not <25% formaldehyde [UN2209] [Corrosive]
FOR
Buffer Solution, pH 4.00, Color-Coded Red
Formic aldehyde
Paraformaldehyde [JAN]
formaidehyde
formaldeyde
formaldhyde
methanon
paraformaldehyd
paraformaldehye
Paraformaldehyde [USP:JAN]
UNII-Y19UC83H8E
Formadehyde
Formaldehye
Veracur
Durine
paraformaidehyde
Formaldehyde, 37 wt% sol. in water, stab. with 5-15% methanol
Formaldehyde, ACS reagent, 37 wt% sol., stab. 10-15% methanol
para formaldehyde
paraform-aldehyde
Para-formaldehyde
Formalin solution, neutral buffered, 10%, histological tissue fixative
F-gen
Hyperband (TN)
Formalin [JAN]
EINECS 200-001-8
Methan 21
CARBONMONOXIDE
HCOH
Floguard 1015
Formalin (JP17)
CARBON-MONOXIDE
Hercules 37M6-8
RFPDT@
FORMALDEHYDE, ACS
H2CO
WLN: VHH
Formaldehyde [BSI:ISO]
Paraformaldehyde (JP17)
ACMC-1AVX8
FORMALDEHYDE 37%
bmse000256
Epitope ID:116196
Melamine-Formaldehyde Resin
EC 200-001-8
Formaldehyde, 4% in PBS
Formaldehyde, methanol-free
AC1L19UQ
C3H8O
CHEMBL1255
Formaldehyde solution, 10%
BIDD:ER0493
GTPL4196
Y19UC83H8E
DTXSID7020637
CTK1G9461
Formaldehyde, solution, flammable
Formaldehyde, as formalin solution
Formaldehyde, solutions, flammable
KS-000010JW
Tox21_111160
Tox21_302438
ANW-44009
FM 282
LS-134
NSC298885
AKOS008967440
BufferPac&trade; Color-Coded Solutions
DB03843
Formaldehyde, 37% in aqueous solution
MCULE-1476806907
NA 9202
NSC-298885
RL03829
RTR-017915
UN 1016
UN 2209
Formaldehyde solution 37 wt. % in H2O
NCGC00255116-01
AN-24361
BP-21234
E240
SC-46956
Formaldehyde solution, 37 wt. % in H2O
AB1002009
LS-101266
TR-017915
F0622
FT-0626522
FT-0689115
P0018
Y1318
Formaldehyde solution ACS 37 wt. % in H2O
Paraformaldehyde [UN2213] [Flammable solid]
C00067
D00017
D01494
Formaldehyde, solutions (Formalin) (corrosive)
Paraformaldehyde [UN2213] [Flammable solid]
A827922
Formaldehyde solution, tested according to Ph.Eur.
SR-01000944454
Formaldehyde, solutions with not <25% formaldehyde
SR-01000944454-1
I14-19020
I14-94270
I14-114193
Formaldehyde Solution, 10% w/w in 84.8 - 94.2% H2O
Paraformaldehyde, 16% w/v aqueous solution, methanol free
Formaldehyde neutral buffer solution, 3.7% formaldehyde in H2O
Formaldehyde neutral buffer solution, 7.5% formaldehyde in H2O
Formaldehyde solution, puriss. p.a., ACS reagent, >=36.5%
Formaldehyde solution, for molecular biology, 36.5-38% in H2O
Formaldehyde solution, meets analytical specification of USP, >=34.5 wt. %
Formaldehyde solution, puriss., 37.0%, contains 6.0-9.0% Methanol
Formaldehyde solution, AR, contains 5-8% methanol as stabilizer, 37-41 % (w/v)
Formaldehyde solution, contains 10-15% methanol as stabilizer, 37 wt. % in H2O
Formaldehyde solution, for molecular biology, BioReagent, >=36.0% in H2O (T)
Formaldehyde solution, JIS special grade, 36.0-38.0%, contains methanol as stabilizer
Formaldehyde solution, LR, contains 5-8% methanol as stabilizer, 37-41 % (w/v)
Formaldehyde solution, SAJ first grade, >=35.0%, contains methanol as stabilizer
Formalin solution, neutral buffered, 10%, case of 24 x 60 mL, histological tissue fixative
Formalin solution, neutral buffered, 10%, case of 48 x 15 mL, histological tissue fixative
Formaldehyde solution, ACS reagent, 37 wt. % in H2O, contains 10-15% Methanol as stabilizer (to prevent polymerization)
Formaldehyde solution, meets analytical specification of Ph.??Eur., BP, 35 wt. %, contains 10% methanol as stabilizer
Formaldehyde solution, meets USP testing specifications, contains 9.0-15% methanol as stabilizer
Formaldehyde solution, stabilized with methanol, ~37 wt. % in H2O, certified reference material
Formalin solution, neutral buffered, 10%, case of 24 x 120 mL, histological tissue fixative

> <TPSA>
17.1

> <TotalAidCount>
249

> <TotalFormalCharge>
0

> <XLogP>
1.2

> <database>
PubChem Compound

> <matchingCount>
176

> <primaryID>
712

> <queryTranslation>
7628[CompoundID] OR 244[CompoundID] OR 25059[CompoundID] OR 7618[CompoundID] OR 7641[CompoundID] OR 5053[CompoundID] OR 637511[CompoundID] OR 7714[CompoundID] OR 7762[CompoundID] OR 25429[CompoundID]
OR 8842[CompoundID] OR 7794[CompoundID] OR 637566[CompoundID] OR 7843[CompoundID] OR 174[CompoundID] OR 7870[CompoundID] OR 86102[CompoundID] OR 7888[CompoundID] OR 7896[CompoundID] OR 1140[CompoundID
] OR 8042[CompoundID] OR 8058[CompoundID] OR 8078[CompoundID] OR 8087[CompoundID] OR 8117[CompoundID] OR 8133[CompoundID] OR 115224[CompoundID] OR 8175[CompoundID] OR 8194[CompoundID] OR 445639[Compou
ndID] OR 4944[CompoundID] OR 8294[CompoundID] OR 93541[CompoundID] OR 8360[CompoundID] OR 8363[CompoundID] OR 656612[CompoundID] OR 125098[CompoundID] OR 3352[CompoundID] OR 3303913[CompoundID] OR 648
05[CompoundID] OR 31200[CompoundID] OR 1712058[CompoundID] OR 31236[CompoundID] OR 31239[CompoundID] OR 31265[CompoundID] OR 31266[CompoundID] OR 31276[CompoundID] OR 6950273[CompoundID] OR 518659[Com
poundID] OR 14896[CompoundID] OR 14798[CompoundID] OR 14829[CompoundID] OR 14830[CompoundID] OR 8635[CompoundID] OR 23266[CompoundID] OR 4284[CompoundID] OR 8693[CompoundID] OR 22311[CompoundID] OR 87
59[CompoundID] OR 8785[CompoundID] OR 2723810[CompoundID] OR 8857[CompoundID] OR 3893[CompoundID] OR 9936739[CompoundID] OR 516892[CompoundID] OR 5430[CompoundID] OR 9017[CompoundID] OR 15433[Compound
ID] OR 107720[CompoundID] OR 9552081[CompoundID] OR 164825[CompoundID] OR 10275455[CompoundID] OR 16666[CompoundID] OR 9839306[CompoundID] OR 5282227[CompoundID] OR 23676745[CompoundID] OR 32881[Compo
undID] OR 91581[CompoundID] OR 39800[CompoundID] OR 33344[CompoundID] OR 15962220[CompoundID] OR 33528[CompoundID] OR 5365075[CompoundID] OR 62829[CompoundID] OR 162381[CompoundID] OR 517202[CompoundI
D] OR 6433353[CompoundID] OR 2730[CompoundID] OR 5372405[CompoundID] OR 36081[CompoundID] OR 3120[CompoundID] OR 3017[CompoundID] OR 2969[CompoundID] OR 18827[CompoundID] OR 19518[CompoundID] OR 19658
[CompoundID] OR 38283[CompoundID] OR 2758[CompoundID] OR 10112[CompoundID] OR 10340[CompoundID] OR 712[CompoundID] OR 5794[CompoundID] OR 3347[CompoundID] OR 104150[CompoundID] OR 2912[CompoundID] OR
2450[CompoundID] OR 40326[CompoundID] OR 40585[CompoundID] OR 517055[CompoundID] OR 10913[CompoundID] OR 108242[CompoundID] OR 62097[CompoundID] OR 41679[CompoundID] OR 54680676[CompoundID] OR 62118[C
ompoundID] OR 753[CompoundID] OR 1030[CompoundID] OR 23673837[CompoundID] OR 54678504[CompoundID] OR 11442[CompoundID] OR 11463[CompoundID] OR 22230[CompoundID] OR 440917[CompoundID] OR 6054[CompoundI
D] OR 43234[CompoundID] OR 22629[CompoundID] OR 3039[CompoundID] OR 2735067[CompoundID] OR 6144[CompoundID] OR 702[CompoundID] OR 284[CompoundID] OR 176[CompoundID] OR 91688[CompoundID] OR 22947[Compo
undID] OR 47445[CompoundID] OR 1711973[CompoundID] OR 243[CompoundID] OR 10342051[CompoundID] OR 5281875[CompoundID] OR 3776[CompoundID] OR 6224[CompoundID] OR 104926[CompoundID] OR 8755[CompoundID] O
R 338[CompoundID] OR 123622[CompoundID] OR 23954[CompoundID] OR 6334[CompoundID] OR 2537[CompoundID] OR 24261[CompoundID] OR 23665760[CompoundID] OR 83975[CompoundID] OR 784[CompoundID] OR 24437[Compo
undID] OR 5360315[CompoundID] OR 311[CompoundID] OR 6549[CompoundID] OR 107689[CompoundID] OR 17100[CompoundID] OR 24976875[CompoundID] OR 6654[CompoundID] OR 71245[CompoundID] OR 6442842[CompoundID]
OR 62334[CompoundID] OR 54698175[CompoundID] OR 6328154[CompoundID] OR 24762[CompoundID] OR 440950[CompoundID] OR 7017[CompoundID] OR 5281873[CompoundID] OR 323[CompoundID] OR 5281167[CompoundID] OR 7
175[CompoundID] OR 7292[CompoundID] OR 6335613[CompoundID] OR 7456[CompoundID] OR 7462[CompoundID]

> <resultIndex>
167

> <resultRange>
1-176

> <textQuery>
7628,244,25059,7618,7641,5053,637511,7714,7762,25429,8842,7794,637566,7843,174,7870,86102,7888,7896,1140,8042,8058,8078,8087,8117,8133,115224,8175,8194,445639,4944,8294,93541,8360,8363,656612,125098,3
352,3303913,64805,31200,1712058,31236,31239,31265,31266,31276,6950273,518659,14896,14798,14829,14830,8635,23266,4284,8693,22311,8759,8785,2723810,8857,3893,9936739,516892,5430,9017,15433,107720,955208
1,164825,10275455,16666,9839306,5282227,23676745,32881,91581,39800,33344,15962220,33528,5365075,62829,162381,517202,6433353,2730,5372405,36081,3120,3017,2969,18827,19518,19658,38283,2758,10112,10340,7
12,5794,3347,104150,2912,2450,40326,40585,517055,10913,108242,62097,41679,54680676,62118,753,1030,23673837,54678504,11442,11463,22230,440917,6054,43234,22629,3039,2735067,6144,702,284,176,91688,22947,
47445,1711973,243,10342051,5281875,3776,6224,104926,8755,338,123622,23954,6334,2537,24261,23665760,83975,784,24437,5360315,311,6549,107689,17100,24976875,6654,71245,6442842,62334,54698175,6328154,2476
2,440950,7017,5281873,323,5281167,7175,7292,6335613,7456,7462

$$$$
702
  SciTegic10191915303D

  9  8  0  0  0  0            999 V2000
    0.9360   -1.1680   -0.0020 O   0  0
    0.5200    0.1790   -0.0020 C   0  0
   -1.0090    0.2080   -0.0020 C   0  0
    1.9060   -1.1680   -0.0020 H   0  0
    0.9140    0.6560    0.8960 H   0  0
    0.9140    0.6560   -0.8990 H   0  0
   -1.3750    1.2340    0.0090 H   0  0
   -1.4040   -0.3020   -0.8800 H   0  0
   -1.4040   -0.2950    0.8810 H   0  0
  1  2  1  0
  2  3  1  0
  1  4  1  0
  2  5  1  0
  2  6  1  0
  3  7  1  0
  3  8  1  0
  3  9  1  0
M  END
> <Name>
702

> <OBJECTID>
9223372741232754699

> <ActiveAidCount>
12

> <AtomChiralCount>
0

> <AtomChiralDefCount>
0

> <AtomChiralUndefCount>
0

> <BondChiralCount>
0

> <BondChiralDefCount>
0

> <BondChiralUndefCount>
0

> <CID>
702

> <CanonicalSmiles>
CCO

> <Complexity>
2.8

> <CovalentUnitCount>
1

> <CreateDate>
2004/09/16 00:00

> <HeavyAtomCount>
3

> <HydrogenBondAcceptorCount>
1

> <HydrogenBondDonorCount>
1

> <IUPACName>
ethanol

> <InChI>
InChI=1S/C2H6O/c1-2-3/h3H,2H2,1H3

> <InChIKey>
LFQSCWFLJHTTHZ-UHFFFAOYSA-N

> <IsomericSmiles>
CCO

> <IsotopeAtomCount>
0

> <MeSHHeading>
Ethanol

> <MeSHTerm>
Alcohol, Grain
Grain Alcohol
Absolute Alcohol
Alcohol, Absolute
Alcohol, Ethyl
Ethyl Alcohol
Ethanol

> <MolecularFormula>
C2H6O

> <MolecularWeight>
46.07

> <PharmAction>
Central Nervous System Depressants
Anti-Infective Agents
Specialty Uses of Chemicals
Chemical Actions and Uses
Therapeutic Uses
Physiological Effects of Drugs
Solvents
Central Nervous System Agents
Pharmacologic Actions
Anti-Infective Agents, Local

> <RotatableBondCount>
0

> <Smiles>
OCC

> <SourceCategory>
Chemical Vendors
Research and Development
Legacy Depositors
Curation Efforts
Governmental Organizations
NIH Initiatives
Subscription Services
Journal Publishers

> <Synonym>
ethanol
ethyl alcohol
alcohol
Methylcarbinol
grain alcohol
64-17-5
Ethyl hydroxide
Ethyl hydrate
etanol
EtOH
Algrain
Alkohol
Anhydrol
Tecsol
Denatured alcohol
Hydroxyethane
Jaysol S
Potato alcohol
Cologne Spirit
Absolute ethanol
Alcool ethylique
Ethanol 200 proof
Molasses alcohol
Spirits of wine
Aethylalkohol
Denatured ethanol
Aethanol
Alcohols
1-Hydroxyethane
Fermentation alcohol
Alcohol, diluted
Tecsol C
Alcool etilico
Etanolo
Jaysol
Etylowy alkohol
absolute alcohol
Ethanol solution
Alcohol, ethyl
Alcohol dehydrated
Alkoholu etylowego
Dehydrated ethanol
Ethyl alcohol usp
Alcohol, anhydrous
Synasol
Ethyl alcohol anhydrous
Denatured alcohol CD-5
Denatured alcohol SD-1
Distilled spirits
Denatured alcohol CD-5a
Denatured alcohol SD-3a
Denatured alcohol CD-10
Denatured alcohol SD-17
Denatured alcohol SD-28
Denatured alcohol SD-30
Denatured alcohol SD-13a
Denatured alcohol SD-23a
Denatured alcohol SD-39b
Denatured alcohol SD-39c
Denatured alcohol SD-40m
Ethylalcohol
Spirit
SD Alchol 23-hydrogen
Ethanol Absolute
Dehydrated alcohol
Alkohol [German]
Aethanol [German]
Etanolo [Italian]
Ethyl alcohol & water, 5%
Thanol
Ethanol, undenatured
Spirt
Alcare Hand Degermer
Ethyl alcohol & water, 10%
Ethyl alcohol & water, 20%
Ethyl alcohol & water, 30%
Ethyl alcohol & water, 40%
Ethyl alcohol & water, 50%
Ethyl alcohol & water, 60%
Ethyl alcohol & water, 70%
Ethyl alcohol & water, 80%
Ethyl alcohol & water, 95%
Ethyl alcohol & water, 96%
Ethyl alc
Ethylalcohol [Dutch]
Alcohol anhydrous
Ethyl alcohol and water
Alcohol (ethyl alcohol)
Alcohol, dehydrated
Alcohol [USP]
Ethicap
Ethylol
Hinetoless
alcohol etilico
Cologne spirits
spiritus vini
Caswell No. 430
Reagent Alcohol
Infinity Pure
NCI-C03134
Aethylalkohol [German]
Desinfektol EL
Anhydrous alcohol
Ethanol Anhydrous
Ethyl alcohol in alcoholic beverages
FEMA Number 2419
Alcool etilico [Italian]
Etylowy alkohol [Polish]
Ethyl alcohol, undenatured
Alcool ethylique [French]
C2H5OH
Ethanol [JAN]
Alkoholu etylowego [Polish]
HSDB 82
SDM No. 37
AI3-01706
CCRIS 945
FEMA No. 2419
Ethanol Vapor
SD alcohol 23-hydrogen
Ru-Tuss Hydrocodone Liquid
Ethanol, denatured
C2H6O
NSC 85228
Alcohol (USP)
EPA Pesticide Chemical Code 001501
Absolute ethyl alcohol
UNII-3K9958V90M
Ethanol, silent spirit
Ethyl alcohol, anhydrous
Punctilious ethyl alcohol
ALCOHOL 5% IN DEXTROSE 5%
EINECS 200-578-6
Cologne spirits (alcohol)
Ethanol, anhydrous, denatured
CHEBI:16236
LFQSCWFLJHTTHZ-UHFFFAOYSA-N
Ethanol, Anhydrous
MFCD00003568
3K9958V90M
Ethanol, CDA 19
Ethanol, 200 Proof
Ethyl Alcohol Denatured
Alcohols, C1-3
Alcohols, C6-9
EOH
Alcohols, C>30
ALCOHOL, ANHYDROUS REAGENT
Sekundasprit
Ethyloxy Group
(C6-C9)Alkyl alcohol
Ethanol Extra Pure
Lux
Oxydimethylene Group
SY Fresh M
Ethanol Absolute Bp
Esumiru WK 88
Ethanol (9CI)
Anhydrol PM 4085
Ethyl alcohol (Ethanol)
Higher alcohol distillate
HYDROXYETHYL GROUP
Ethyl Alcohol, Denatured
SDA 3A
Athylalkohol
Athanol
silent spirit
diluted Alcohol
Ethylic alcohol
ethanol-
100C.NPA
ALCOHOL 5% IN D5-W
CDA 19
Drinking alcohol
IMS 99
Alcohol denatured
Ethanol denatured
Alcohol (ethyl)
Alcohol, denatured
undenatured Ethanol
AHD 2000
Hamamelis virginiana
SDA 40-2
VANILLA Powder
EINECS 270-649-4
Eosin Y, Alcoholic
fermentation alcohol
CDA 19-200
Ethyl Alcohol 40%
Ethyl Alcohol 70%
Ethyl Alcohol 75%
Ethyl Alcohol 80%
Ethyl Alcohol 90%
QMHAIh@
Ethyl alcohol,absolute
WITCH HAZEL
Ethanol, 99.8%
Ethanol, technical grade
Fatty Alcohol C8-10
Reagent Alcohol, 70%
Reagent Alcohol, 80%
Reagent Alcohol, 95%
CH3CH2OH
Dehydrated ethanol (TN)
Ethyl Alcohol 47.5%
DSSTox_CID_584
Ethanol, standard for GC
ACMC-1AT5A
bmse000297
CHEMBL545
EC 200-578-6
Ethanol, >=99.5%
AC1L19TW
AC1Q31MM
Aerosol&trade; OT Solution
Anhydrous ethanol (JP17)
Ethanol, denatured, special
Reagent Alcohol, for HPLC
Ethanol, analytical standard
DSSTox_RID_75674
SD 3A
DSSTox_GSID_20584
Ethanol, for UV Spectrocopy
Methylated Spirit Mineralised
Ru-Tuss Liquid (Salt/Mix)
Ethanol, USP, 99.5%
WLN: Q2
68475-56-9
71076-86-3
71329-38-9
Ethanol, for residue analysis
KSC353A0H
Reagent Alcohol, ACS reagent
Duplicating Fluid 100C.NPA
Ethanol, p.a., 99.8%
Reagent Alcohol, reagent grade
SDM No. 37 (Salt/Mix)
GTPL2299
Alcohol dehydrated, >=85.0%
DTXSID4028331
DTXSID9020584
Ethanol, technical grade, 93%
Ethanol, technical grade, 99%
CHEBI:17246
CTK2F3003
Ethanol, 95.1-96.9%
KS-00000WFI
poly(vinyl alcohol) macromolecule
Ru-Tuss Expectorant (Salt/Mix)
Ethyl alcohol (6CI,7CI,8CI)
Ethanol, technical grade, 93.8%
Ethanol, technical grade, 99.5%
Ethanol, >=99.5%, for HPLC
NSC85228
Ethyl Alcohol 95% ACS/USP Grade
Tox21_202510
6869AF
ALCOHOL 5% AND DEXTROSE 5%
ANW-42207
NSC-85228
STL264245
Ethanol 2000 microg/mL in Methanol
Ethanol, 95.0%, (190 proof)
Ethanol, p.a., ACS reagent, 96%
Ethanol, tested according to Ph.Eur.
Ethanol, USP, 70.0-72.0%
Ethanol, USP, 94.9-96.0%
AKOS009104571
Ethanol, Reagent (Denatured SDA 3A)
ALCOHOL 10% AND DEXTROSE 5%
DB00898
Ethanol 10000 microg/mL in Methanol
Ethanol, absolute, >=99.8% (GC)
Ethanol, UV HPLC spectroscopic, 95%
LS-1539
MCULE-8818474596
RL04444
RTR-022011
UN 1170
CAS-64-17-5
Ethanol, denatured, (UK IDA standard)
Ethanol, SAJ first grade, >=99.5%
Ethyl Alcohol Absolute, ACS/USP Grade
Ethanol, JIS special grade, >=99.5%
Ethanol, p.a., ACS reagent, 95.0%
Ethanol, technical grade, 92.6-93.8
NCGC00091458-01
NCGC00091458-02
NCGC00260059-01
Reagent Alcohol, spectrophotometric grade
AN-41865
EOX
SC-25298
Ethanol, >50% in a non hazardous diluent
Ethanol, absolute, for HPLC, >=99.8%
Ethanol, anhydrous, denatured, HPLC Grade
Ethyl Alcohol 95% (Synthetic) FCC Grade
Ethanol, ACS reagent, 99.8, 200 proof
Ethanol, JIS first grade, 94.8-95.8%
Ethyl Alcohol Absolute (Organic) USP Grade
TR-022011
113-EP0930075A1
113-EP1441224A2
113-EP2269610A2
113-EP2269977A2
113-EP2269978A2
113-EP2269983A1
113-EP2269984A1
113-EP2269985A2
113-EP2269986A1
113-EP2269989A1
113-EP2269990A1
113-EP2269991A2
113-EP2269994A1
113-EP2269995A1
113-EP2270000A1
113-EP2270004A1
113-EP2270005A1
113-EP2270006A1
113-EP2270008A1
113-EP2270009A1
113-EP2270010A1
113-EP2270011A1
113-EP2270012A1
113-EP2270013A1
113-EP2270014A1
113-EP2270017A1
113-EP2270101A1
113-EP2270113A1
113-EP2270114A1
113-EP2270505A1
113-EP2272516A2
113-EP2272517A1
113-EP2272813A2
113-EP2272817A1
113-EP2272822A1
113-EP2272825A2
113-EP2272832A1
113-EP2272834A1
113-EP2272835A1
113-EP2272839A1
113-EP2272840A1
113-EP2272841A1
113-EP2272843A1
113-EP2272844A1
113-EP2272847A1
113-EP2272848A1
113-EP2272849A1
113-EP2272935A1
113-EP2272972A1
113-EP2272973A1
113-EP2274983A1
113-EP2275102A1
113-EP2275105A1
113-EP2275398A1
113-EP2275401A1
113-EP2275404A1
113-EP2275409A1
113-EP2275410A1
113-EP2275411A2
113-EP2275412A1
113-EP2275413A1
113-EP2275414A1
113-EP2275417A2
113-EP2275418A1
113-EP2275420A1
113-EP2275421A1
113-EP2275424A1
113-EP2275427A1
113-EP2275469A1
113-EP2277507A1
113-EP2277848A1
113-EP2277861A1
113-EP2277862A2
113-EP2277867A2
113-EP2277872A1
113-EP2277874A1
113-EP2277876A1
113-EP2277877A1
113-EP2277878A1
113-EP2277879A1
113-EP2277881A1
113-EP2280001A1
113-EP2280003A2
113-EP2280004A1
113-EP2280005A1
113-EP2280008A2
113-EP2280009A1
113-EP2280010A2
113-EP2280012A2
113-EP2280020A1
113-EP2280021A1
113-EP2281816A1
113-EP2281817A1
113-EP2281818A1
113-EP2281820A2
113-EP2281823A2
113-EP2281899A2
113-EP2284146A2
113-EP2284147A2
113-EP2284148A1
113-EP2284149A1
113-EP2284150A2
113-EP2284151A2
113-EP2284152A2
113-EP2284153A2
113-EP2284154A1
113-EP2284155A2
113-EP2284156A2
113-EP2284157A1
113-EP2284158A1
113-EP2284160A1
113-EP2284162A2
113-EP2284163A2
113-EP2284164A2
113-EP2284165A1
113-EP2284169A1
113-EP2284170A1
113-EP2284171A1
113-EP2284172A1
113-EP2284174A1
113-EP2286795A1
113-EP2286811A1
113-EP2286812A1
113-EP2286915A2
113-EP2287140A2
113-EP2287141A1
113-EP2287147A2
113-EP2287148A2
113-EP2287150A2
113-EP2287152A2
113-EP2287153A1
113-EP2287154A1
113-EP2287155A1
113-EP2287156A1
113-EP2287159A1
113-EP2287161A1
113-EP2287162A1
113-EP2287163A1
113-EP2287165A2
113-EP2287166A2
113-EP2287167A1
113-EP2287940A1
113-EP2289509A2
113-EP2289510A1
113-EP2289518A1
113-EP2289868A1
113-EP2289871A1
113-EP2289879A1
113-EP2289880A1
113-EP2289882A1
113-EP2289883A1
113-EP2289884A1
113-EP2289887A2
113-EP2289888A2
113-EP2289890A1
113-EP2289892A1
113-EP2289894A2
113-EP2289897A1
113-EP2289965A1
113-EP2292088A1
113-EP2292228A1
113-EP2292231A1
113-EP2292233A2
113-EP2292576A2
113-EP2292590A2
113-EP2292592A1
113-EP2292593A2
113-EP2292597A1
113-EP2292606A1
113-EP2292612A2
113-EP2292614A1
113-EP2292615A1
113-EP2292617A1
113-EP2292620A2
113-EP2292622A1
113-EP2292628A2
113-EP2292629A1
113-EP2295399A2
113-EP2295401A2
113-EP2295406A1
113-EP2295408A1
113-EP2295410A1
113-EP2295411A1
113-EP2295412A1
113-EP2295413A1
113-EP2295414A1
113-EP2295415A1
113-EP2295416A2
113-EP2295417A1
113-EP2295418A1
113-EP2295419A2
113-EP2295420A1
113-EP2295422A2
113-EP2295423A1
113-EP2295426A1
113-EP2295427A1
113-EP2295430A2
113-EP2295431A2
113-EP2295433A2
113-EP2295434A2
113-EP2295438A1
113-EP2295439A1
113-EP2295550A2
113-EP2298312A1
113-EP2298313A1
113-EP2298728A1
113-EP2298729A1
113-EP2298731A1
113-EP2298732A1
113-EP2298735A1
113-EP2298743A1
113-EP2298745A1
113-EP2298746A1
113-EP2298748A2
113-EP2298750A1
113-EP2298751A2
113-EP2298753A1
113-EP2298754A1
113-EP2298755A1
113-EP2298758A1
113-EP2298759A1
113-EP2298761A1
113-EP2298763A1
113-EP2298767A1
113-EP2298768A1
113-EP2298770A1
113-EP2298772A1
113-EP2298776A1
113-EP2298778A1
113-EP2298779A1
113-EP2298783A1
113-EP2299326A1
113-EP2301533A1
113-EP2301534A1
113-EP2301909A1
113-EP2301912A2
113-EP2301913A1
113-EP2301914A1
113-EP2301916A2
113-EP2301918A1
113-EP2301919A1
113-EP2301924A1
113-EP2301928A1
113-EP2301929A1
113-EP2301930A1
113-EP2301931A1
113-EP2301933A1
113-EP2301935A1
113-EP2301936A1
113-EP2301939A1
113-EP2301983A1
113-EP2302003A1
113-EP2302382A2
113-EP2302383A2
113-EP2305250A1
113-EP2305257A1
113-EP2305260A1
113-EP2305625A1
113-EP2305627A1
113-EP2305629A1
113-EP2305633A1
113-EP2305636A1
113-EP2305637A2
113-EP2305640A2
113-EP2305643A1
113-EP2305646A1
113-EP2305648A1
113-EP2305652A2
113-EP2305660A1
113-EP2305664A1
113-EP2305666A1
113-EP2305667A2
113-EP2305668A1
113-EP2305671A1
113-EP2305672A1
113-EP2305673A1
113-EP2305674A1
113-EP2305675A1
113-EP2305676A1
113-EP2305678A1
113-EP2305679A1
113-EP2305680A2
113-EP2305681A1
113-EP2305682A1
113-EP2305683A1
113-EP2305684A1
113-EP2305687A1
113-EP2305695A2
113-EP2305696A2
113-EP2305697A2
113-EP2305698A2
113-EP2305808A1
113-EP2305825A1
113-EP2308492A1
113-EP2308509A1
113-EP2308510A1
113-EP2308562A2
113-EP2308828A2
113-EP2308832A1
113-EP2308833A2
113-EP2308838A1
113-EP2308839A1
113-EP2308840A1
113-EP2308841A2
113-EP2308844A2
113-EP2308845A2
113-EP2308846A2
113-EP2308848A1
113-EP2308849A1
113-EP2308851A1
113-EP2308857A1
113-EP2308861A1
113-EP2308863A1
113-EP2308864A1
113-EP2308865A1
113-EP2308867A2
113-EP2308870A2
113-EP2308871A1
113-EP2308872A1
113-EP2308874A1
113-EP2308875A1
113-EP2308877A1
113-EP2308879A1
113-EP2308882A1
113-EP2308926A1
113-EP2309564A1
113-EP2309584A1
113-EP2311451A1
113-EP2311464A1
113-EP2311796A1
113-EP2311797A1
113-EP2311798A1
113-EP2311799A1
113-EP2311801A1
113-EP2311802A1
113-EP2311803A1
113-EP2311805A1
113-EP2311806A2
113-EP2311807A1
113-EP2311808A1
113-EP2311810A1
113-EP2311811A1
113-EP2311815A1
113-EP2311818A1
113-EP2311820A1
113-EP2311821A1
113-EP2311822A1
113-EP2311823A1
113-EP2311824A1
113-EP2311825A1
113-EP2311827A1
113-EP2311828A1
113-EP2311829A1
113-EP2311830A1
113-EP2311832A1
113-EP2311833A1
113-EP2311834A1
113-EP2311835A1
113-EP2311838A1
113-EP2311839A1
113-EP2311840A1
113-EP2311841A1
113-EP2311842A2
113-EP2311846A1
113-EP2311850A1
113-EP2314295A1
113-EP2314558A1
113-EP2314575A1
113-EP2314576A1
113-EP2314581A1
113-EP2314583A1
113-EP2314584A1
113-EP2314585A1
113-EP2314586A1
113-EP2314587A1
113-EP2314588A1
113-EP2314589A1
113-EP2314591A1
113-EP2314593A1
113-EP2315303A1
113-EP2316450A1
113-EP2316452A1
113-EP2316457A1
113-EP2316458A1
113-EP2316824A1
113-EP2316825A1
113-EP2316826A1
113-EP2316827A1
113-EP2316828A1
113-EP2316829A1
113-EP2316831A1
113-EP2316835A1
113-EP2316837A1
113-EP2316974A1
113-EP2371805A1
113-EP2371809A1
113-EP2371811A2
113-EP2371814A1
113-EP2372017A1
113-EP2374454A1
113-EP2374526A1
113-EP2374780A1
113-EP2374781A1
113-EP2374783A1
113-EP2374786A1
113-EP2374787A1
113-EP2374790A1
113-EP2374792A1
113-EP2375479A1
113-EP2377510A1
113-EP2377841A1
113-EP2377848A1
113-EP2380568A1
113-EP2380661A2
113-EP2380871A1
113-EP2380872A1
113-EP2380873A1
139-EP0930075A1
139-EP1441224A2
139-EP2269610A2
139-EP2269651A2
139-EP2269977A2
139-EP2269978A2
139-EP2269985A2
139-EP2269986A1
139-EP2269987A1
139-EP2269988A2
139-EP2269989A1
139-EP2269990A1
139-EP2269991A2
139-EP2269992A1
139-EP2269993A1
139-EP2269994A1
139-EP2269995A1
139-EP2269996A1
139-EP2269999A1
139-EP2270000A1
139-EP2270001A1
139-EP2270002A1
139-EP2270004A1
139-EP2270006A1
139-EP2270008A1
139-EP2270009A1
139-EP2270010A1
139-EP2270011A1
139-EP2270012A1
139-EP2270013A1
139-EP2270014A1
139-EP2270017A1
139-EP2270101A1
139-EP2270113A1
139-EP2270114A1
139-EP2270505A1
139-EP2270895A2
139-EP2272516A2
139-EP2272517A1
139-EP2272537A2
139-EP2272813A2
139-EP2272817A1
139-EP2272822A1
139-EP2272825A2
139-EP2272826A1
139-EP2272827A1
139-EP2272828A1
139-EP2272830A1
139-EP2272832A1
139-EP2272834A1
139-EP2272835A1
139-EP2272837A1
139-EP2272839A1
139-EP2272840A1
139-EP2272841A1
139-EP2272843A1
139-EP2272844A1
139-EP2272846A1
139-EP2272847A1
139-EP2272848A1
139-EP2272849A1
139-EP2272935A1
139-EP2272972A1
139-EP2272973A1
139-EP2274983A1
139-EP2275102A1
139-EP2275105A1
139-EP2275398A1
139-EP2275401A1
139-EP2275403A1
139-EP2275404A1
139-EP2275409A1
139-EP2275411A2
139-EP2275412A1
139-EP2275413A1
139-EP2275414A1
139-EP2275419A2
139-EP2275420A1
139-EP2275421A1
139-EP2275422A1
139-EP2275423A1
139-EP2275424A1
139-EP2275425A1
139-EP2275427A1
139-EP2275469A1
139-EP2277507A1
139-EP2277565A2
139-EP2277566A2
139-EP2277567A1
139-EP2277568A2
139-EP2277569A2
139-EP2277570A2
139-EP2277848A1
139-EP2277858A1
139-EP2277861A1
139-EP2277865A1
139-EP2277866A1
139-EP2277867A2
139-EP2277868A1
139-EP2277869A1
139-EP2277870A1
139-EP2277872A1
139-EP2277874A1
139-EP2277875A2
139-EP2277876A1
139-EP2277878A1
139-EP2277879A1
139-EP2277880A1
139-EP2277881A1
139-EP2277898A2
139-EP2278637A1
139-EP2279741A2
139-EP2279750A1
139-EP2279751A2
139-EP2280000A1
139-EP2280001A1
139-EP2280003A2
139-EP2280004A1
139-EP2280005A1
139-EP2280006A1
139-EP2280007A1
139-EP2280008A2
139-EP2280010A2
139-EP2280011A1
139-EP2280012A2
139-EP2280013A1
139-EP2280014A2
139-EP2280020A1
139-EP2280021A1
139-EP2281563A1
139-EP2281810A1
139-EP2281812A1
139-EP2281813A1
139-EP2281815A1
139-EP2281817A1
139-EP2281818A1
139-EP2281819A1
139-EP2281820A2
139-EP2281821A1
139-EP2281822A1
139-EP2281823A2
139-EP2281824A1
139-EP2281861A2
139-EP2281899A2
139-EP2283811A1
139-EP2283898A1
139-EP2284146A2
139-EP2284147A2
139-EP2284149A1
139-EP2284150A2
139-EP2284151A2
139-EP2284152A2
139-EP2284153A2
139-EP2284154A1
139-EP2284155A2
139-EP2284156A2
139-EP2284157A1
139-EP2284158A1
139-EP2284159A1
139-EP2284160A1
139-EP2284161A1
139-EP2284164A2
139-EP2284165A1
139-EP2284166A1
139-EP2284167A2
139-EP2284168A2
139-EP2284169A1
139-EP2284170A1
139-EP2284171A1
139-EP2284172A1
139-EP2284174A1
139-EP2284178A2
139-EP2284179A2
139-EP2284920A1
139-EP2286795A1
139-EP2286811A1
139-EP2286812A1
139-EP2286915A2
139-EP2287140A2
139-EP2287141A1
139-EP2287147A2
139-EP2287148A2
139-EP2287150A2
139-EP2287152A2
139-EP2287153A1
139-EP2287154A1
139-EP2287155A1
139-EP2287156A1
139-EP2287158A1
139-EP2287159A1
139-EP2287160A1
139-EP2287161A1
139-EP2287162A1
139-EP2287163A1
139-EP2287164A1
139-EP2287165A2
139-EP2287166A2
139-EP2287167A1
139-EP2287168A2
139-EP2287940A1
139-EP2289483A1
139-EP2289509A2
139-EP2289510A1
139-EP2289868A1
139-EP2289871A1
139-EP2289876A1
139-EP2289877A1
139-EP2289879A1
139-EP2289881A1
139-EP2289882A1
139-EP2289883A1
139-EP2289884A1
139-EP2289885A1
139-EP2289887A2
139-EP2289888A2
139-EP2289890A1
139-EP2289892A1
139-EP2289893A1
139-EP2289894A2
139-EP2289896A1
139-EP2289897A1
139-EP2289965A1
139-EP2292088A1
139-EP2292227A2
139-EP2292228A1
139-EP2292233A2
139-EP2292234A1
139-EP2292280A1
139-EP2292586A2
139-EP2292589A1
139-EP2292590A2
139-EP2292592A1
139-EP2292593A2
139-EP2292596A2
139-EP2292597A1
139-EP2292601A1
139-EP2292602A1
139-EP2292603A1
139-EP2292606A1
139-EP2292607A2
139-EP2292608A1
139-EP2292609A1
139-EP2292610A1
139-EP2292612A2
139-EP2292613A1
139-EP2292614A1
139-EP2292615A1
139-EP2292616A1
139-EP2292617A1
139-EP2292618A1
139-EP2292619A1
139-EP2292620A2
139-EP2292621A1
139-EP2292622A1
139-EP2292625A1
139-EP2292628A2
139-EP2292629A1
139-EP2292630A1
139-EP2293650A1
139-EP2295053A1
139-EP2295055A2
139-EP2295061A1
139-EP2295399A2
139-EP2295406A1
139-EP2295407A1
139-EP2295408A1
139-EP2295409A1
139-EP2295410A1
139-EP2295411A1
139-EP2295412A1
139-EP2295413A1
139-EP2295414A1
139-EP2295415A1
139-EP2295416A2
139-EP2295417A1
139-EP2295418A1
139-EP2295419A2
139-EP2295420A1
139-EP2295421A1
139-EP2295422A2
139-EP2295423A1
139-EP2295424A1
139-EP2295425A1
139-EP2295426A1
139-EP2295427A1
139-EP2295428A2
139-EP2295429A1
139-EP2295430A2
139-EP2295431A2
139-EP2295432A1
139-EP2295433A2
139-EP2295434A2
139-EP2295435A1
139-EP2295436A1
139-EP2295437A1
139-EP2295438A1
139-EP2295439A1
139-EP2295550A2
139-EP2298305A1
139-EP2298312A1
139-EP2298313A1
139-EP2298728A1
139-EP2298729A1
139-EP2298731A1
139-EP2298732A1
139-EP2298734A2
139-EP2298735A1
139-EP2298736A1
139-EP2298737A1
139-EP2298738A1
139-EP2298739A1
139-EP2298740A1
139-EP2298741A1
139-EP2298742A1
139-EP2298743A1
139-EP2298744A2
139-EP2298745A1
139-EP2298746A1
139-EP2298747A1
139-EP2298748A2
139-EP2298749A1
139-EP2298750A1
139-EP2298751A2
139-EP2298752A1
139-EP2298753A1
139-EP2298754A1
139-EP2298755A1
139-EP2298756A1
139-EP2298757A2
139-EP2298758A1
139-EP2298759A1
139-EP2298760A1
139-EP2298761A1
139-EP2298763A1
139-EP2298764A1
139-EP2298765A1
139-EP2298766A1
139-EP2298767A1
139-EP2298768A1
139-EP2298769A1
139-EP2298770A1
139-EP2298771A2
139-EP2298772A1
139-EP2298773A1
139-EP2298774A1
139-EP2298775A1
139-EP2298776A1
139-EP2298778A1
139-EP2298779A1
139-EP2298783A1
139-EP2298828A1
139-EP2299509A1
139-EP2299510A1
139-EP2301533A1
139-EP2301534A1
139-EP2301536A1
139-EP2301538A1
139-EP2301540A1
139-EP2301544A1
139-EP2301627A1
139-EP2301909A1
139-EP2301911A1
139-EP2301912A2
139-EP2301913A1
139-EP2301914A1
139-EP2301916A2
139-EP2301919A1
139-EP2301920A1
139-EP2301921A1
139-EP2301922A1
139-EP2301923A1
139-EP2301925A1
139-EP2301928A1
139-EP2301929A1
139-EP2301931A1
139-EP2301933A1
139-EP2301934A1
139-EP2301935A1
139-EP2301936A1
139-EP2301937A1
139-EP2301938A1
139-EP2301939A1
139-EP2301940A1
139-EP2301941A1
139-EP2301983A1
139-EP2302003A1
139-EP2305033A1
139-EP2305219A1
139-EP2305243A1
139-EP2305250A1
139-EP2305254A1
139-EP2305257A1
139-EP2305260A1
139-EP2305625A1
139-EP2305627A1
139-EP2305629A1
139-EP2305633A1
139-EP2305637A2
139-EP2305640A2
139-EP2305641A1
139-EP2305642A2
139-EP2305643A1
139-EP2305644A1
139-EP2305647A1
139-EP2305648A1
139-EP2305649A1
139-EP2305651A1
139-EP2305652A2
139-EP2305654A1
139-EP2305655A2
139-EP2305657A2
139-EP2305658A1
139-EP2305659A1
139-EP2305660A1
139-EP2305662A1
139-EP2305663A1
139-EP2305664A1
139-EP2305666A1
139-EP2305667A2
139-EP2305668A1
139-EP2305669A1
139-EP2305671A1
139-EP2305672A1
139-EP2305673A1
139-EP2305674A1
139-EP2305675A1
139-EP2305676A1
139-EP2305677A1
139-EP2305678A1
139-EP2305679A1
139-EP2305680A2
139-EP2305681A1
139-EP2305682A1
139-EP2305683A1
139-EP2305684A1
139-EP2305685A1
139-EP2305686A1
139-EP2305687A1
139-EP2305688A1
139-EP2305695A2
139-EP2305696A2
139-EP2305697A2
139-EP2305698A2
139-EP2305769A2
139-EP2305808A1
139-EP2305825A1
139-EP2308471A1
139-EP2308479A2
139-EP2308492A1
139-EP2308509A1
139-EP2308510A1
139-EP2308562A2
139-EP2308812A2
139-EP2308828A2
139-EP2308832A1
139-EP2308833A2
139-EP2308838A1
139-EP2308839A1
139-EP2308840A1
139-EP2308841A2
139-EP2308842A1
139-EP2308848A1
139-EP2308849A1
139-EP2308850A1
139-EP2308851A1
139-EP2308852A1
139-EP2308853A1
139-EP2308854A1
139-EP2308855A1
139-EP2308857A1
139-EP2308858A1
139-EP2308861A1
139-EP2308863A1
139-EP2308864A1
139-EP2308865A1
139-EP2308866A1
139-EP2308867A2
139-EP2308868A1
139-EP2308869A1
139-EP2308870A2
139-EP2308871A1
139-EP2308872A1
139-EP2308873A1
139-EP2308874A1
139-EP2308875A1
139-EP2308876A1
139-EP2308877A1
139-EP2308878A2
139-EP2308879A1
139-EP2308880A1
139-EP2308882A1
139-EP2308883A1
139-EP2308926A1
139-EP2309505A1
139-EP2309564A1
139-EP2309584A1
139-EP2311451A1
139-EP2311453A1
139-EP2311455A1
139-EP2311464A1
139-EP2311494A1
139-EP2311796A1
139-EP2311797A1
139-EP2311798A1
139-EP2311799A1
139-EP2311801A1
139-EP2311802A1
139-EP2311803A1
139-EP2311805A1
139-EP2311806A2
139-EP2311807A1
139-EP2311808A1
139-EP2311810A1
139-EP2311811A1
139-EP2311812A1
139-EP2311814A1
139-EP2311815A1
139-EP2311816A1
139-EP2311817A1
139-EP2311818A1
139-EP2311820A1
139-EP2311821A1
139-EP2311822A1
139-EP2311823A1
139-EP2311824A1
139-EP2311825A1
139-EP2311826A2
139-EP2311827A1
139-EP2311828A1
139-EP2311829A1
139-EP2311830A1
139-EP2311831A1
139-EP2311832A1
139-EP2311833A1
139-EP2311834A1
139-EP2311835A1
139-EP2311836A1
139-EP2311837A1
139-EP2311838A1
139-EP2311839A1
139-EP2311840A1
139-EP2311842A2
139-EP2311850A1
139-EP2314295A1
139-EP2314298A1
139-EP2314558A1
139-EP2314571A2
139-EP2314575A1
139-EP2314576A1
139-EP2314577A1
139-EP2314578A1
139-EP2314579A1
139-EP2314581A1
139-EP2314582A1
139-EP2314583A1
139-EP2314584A1
139-EP2314585A1
139-EP2314586A1
139-EP2314587A1
139-EP2314588A1
139-EP2314589A1
139-EP2314590A1
139-EP2314591A1
139-EP2314593A1
139-EP2315303A1
139-EP2315502A1
139-EP2316450A1
139-EP2316452A1
139-EP2316457A1
139-EP2316458A1
139-EP2316459A1
139-EP2316470A2
139-EP2316825A1
139-EP2316826A1
139-EP2316827A1
139-EP2316828A1
139-EP2316829A1
139-EP2316830A2
139-EP2316831A1
139-EP2316832A1
139-EP2316833A1
139-EP2316835A1
139-EP2316836A1
139-EP2316837A1
139-EP2316905A1
139-EP2316906A2
139-EP2316937A1
139-EP2371797A1
139-EP2371798A1
139-EP2371800A1
139-EP2371806A1
139-EP2371807A1
139-EP2371810A1
139-EP2371811A2
139-EP2371813A1
139-EP2371814A1
139-EP2371823A1
139-EP2371831A1
139-EP2372017A1
139-EP2372804A1
139-EP2374454A1
139-EP2374538A1
139-EP2374780A1
139-EP2374781A1
139-EP2374783A1
139-EP2374788A1
139-EP2374790A1
139-EP2374791A1
139-EP2374792A1
139-EP2374895A1
139-EP2377510A1
139-EP2377841A1
139-EP2377845A1
139-EP2377847A1
139-EP2378585A1
139-EP2380568A1
139-EP2380872A1
139-EP2380873A1
139-EP2380874A2
E1510
Ethanol solution, EP, BP, 69.5-70.4%
Ethanol, denatured, Spectrophotometric Grade
Ethanol, JIS special grade, 94.8-95.8%
FT-0625728
Ethanol, >=99.5%, SAJ super special grade
Reagent Alcohol, anhydrous, <=0.003% water
Reagent Alcohol, anhydrous, <=0.005% water
1037-EP2269996A1
1037-EP2270002A1
1037-EP2270006A1
1037-EP2272848A1
1037-EP2274983A1
1037-EP2275411A2
1037-EP2277565A2
1037-EP2277566A2
1037-EP2277567A1
1037-EP2277568A2
1037-EP2277569A2
1037-EP2277570A2
1037-EP2277862A2
1037-EP2277866A1
1037-EP2277867A2
1037-EP2280003A2
1037-EP2280008A2
1037-EP2280010A2
1037-EP2281563A1
1037-EP2284160A1
1037-EP2284169A1
1037-EP2284172A1
1037-EP2287152A2
1037-EP2287160A1
1037-EP2287161A1
1037-EP2287162A1
1037-EP2289868A1
1037-EP2289893A1
1037-EP2292227A2
1037-EP2292280A1
1037-EP2295055A2
1037-EP2295402A2
1037-EP2295408A1
1037-EP2295410A1
1037-EP2295416A2
1037-EP2295437A1
1037-EP2295439A1
1037-EP2298734A2
1037-EP2298735A1
1037-EP2298748A2
1037-EP2298770A1
1037-EP2298775A1
1037-EP2301939A1
1037-EP2302382A2
1037-EP2302383A2
1037-EP2305243A1
1037-EP2305254A1
1037-EP2305679A1
1037-EP2305684A1
1037-EP2305689A1
1037-EP2308479A2
1037-EP2308861A1
1037-EP2308872A1
1037-EP2308873A1
1037-EP2308875A1
1037-EP2311453A1
1037-EP2311809A1
1037-EP2311814A1
1037-EP2311821A1
1037-EP2311824A1
1037-EP2311831A1
1037-EP2311832A1
1037-EP2311833A1
1037-EP2311837A1
1037-EP2311840A1
1037-EP2311842A2
1037-EP2314584A1
1037-EP2316459A1
1037-EP2316470A2
1037-EP2316829A1
1037-EP2316831A1
1037-EP2316832A1
1037-EP2316833A1
1037-EP2316834A1
1037-EP2316835A1
1037-EP2316836A1
1037-EP2374454A1
4260-EP2269977A2
4260-EP2269988A2
4260-EP2269996A1
4260-EP2270000A1
4260-EP2270001A1
4260-EP2270002A1
4260-EP2270003A1
4260-EP2270006A1
4260-EP2270008A1
4260-EP2270010A1
4260-EP2270011A1
4260-EP2270012A1
4260-EP2270013A1
4260-EP2270015A1
4260-EP2270018A1
4260-EP2272510A1
4260-EP2272825A2
4260-EP2272826A1
4260-EP2272839A1
4260-EP2272840A1
4260-EP2272848A1
4260-EP2275102A1
4260-EP2275412A1
4260-EP2275413A1
4260-EP2277848A1
4260-EP2277867A2
4260-EP2277874A1
4260-EP2277875A2
4260-EP2277877A1
4260-EP2279741A2
4260-EP2280003A2
4260-EP2280006A1
4260-EP2280008A2
4260-EP2280010A2
4260-EP2281563A1
4260-EP2281812A1
4260-EP2281813A1
4260-EP2281819A1
4260-EP2281822A1
4260-EP2281861A2
4260-EP2284157A1
4260-EP2284174A1
4260-EP2286811A1
4260-EP2287156A1
4260-EP2287159A1
4260-EP2287165A2
4260-EP2287166A2
4260-EP2287167A1
4260-EP2289509A2
4260-EP2289881A1
4260-EP2289883A1
4260-EP2289893A1
4260-EP2289894A2
4260-EP2292589A1
4260-EP2292593A2
4260-EP2292612A2
4260-EP2292617A1
4260-EP2292620A2
4260-EP2292628A2
4260-EP2295055A2
4260-EP2295401A2
4260-EP2295402A2
4260-EP2295409A1
4260-EP2295411A1
4260-EP2295412A1
4260-EP2295413A1
4260-EP2295416A2
4260-EP2295417A1
4260-EP2295426A1
4260-EP2295427A1
4260-EP2295428A2
4260-EP2295429A1
4260-EP2295432A1
4260-EP2295433A2
4260-EP2295435A1
4260-EP2295437A1
4260-EP2295441A2
4260-EP2295503A1
4260-EP2298312A1
4260-EP2298734A2
4260-EP2298735A1
4260-EP2298743A1
4260-EP2298744A2
4260-EP2298748A2
4260-EP2298750A1
4260-EP2298761A1
4260-EP2298762A2
4260-EP2298770A1
4260-EP2298775A1
4260-EP2298776A1
4260-EP2298780A1
4260-EP2301536A1
4260-EP2301538A1
4260-EP2301544A1
4260-EP2301627A1
4260-EP2301923A1
4260-EP2301928A1
4260-EP2301930A1
4260-EP2301934A1
4260-EP2301939A1
4260-EP2305250A1
4260-EP2305644A1
4260-EP2305648A1
4260-EP2305652A2
4260-EP2305660A1
4260-EP2305671A1
4260-EP2305676A1
4260-EP2305681A1
4260-EP2305682A1
4260-EP2305684A1
4260-EP2305687A1
4260-EP2305689A1
4260-EP2305695A2
4260-EP2305696A2
4260-EP2305697A2
4260-EP2305698A2
4260-EP2305769A2
4260-EP2305808A1
4260-EP2308833A2
4260-EP2308840A1
4260-EP2308841A2
4260-EP2308844A2
4260-EP2308845A2
4260-EP2308846A2
4260-EP2308848A1
4260-EP2308849A1
4260-EP2308850A1
4260-EP2308851A1
4260-EP2308852A1
4260-EP2308861A1
4260-EP2308867A2
4260-EP2308870A2
4260-EP2308872A1
4260-EP2308873A1
4260-EP2308875A1
4260-EP2308876A1
4260-EP2308879A1
4260-EP2311453A1
4260-EP2311455A1
4260-EP2311802A1
4260-EP2311803A1
4260-EP2311806A2
4260-EP2311807A1
4260-EP2311808A1
4260-EP2311821A1
4260-EP2311824A1
4260-EP2311825A1
4260-EP2311826A2
4260-EP2311829A1
4260-EP2311830A1
4260-EP2311831A1
4260-EP2311838A1
4260-EP2311840A1
4260-EP2311842A2
4260-EP2314295A1
4260-EP2314576A1
4260-EP2314586A1
4260-EP2314593A1
4260-EP2315502A1
4260-EP2316452A1
4260-EP2316824A1
4260-EP2316827A1
4260-EP2316829A1
4260-EP2316831A1
4260-EP2316835A1
4260-EP2316836A1
4260-EP2316905A1
4260-EP2316906A2
4260-EP2371813A1
4260-EP2374454A1
4260-EP2374790A1
4260-EP2377845A1
4260-EP2377849A2
4260-EP2380874A2
C00469
D00068
Ethanol, >=99.5%, suitable for fluorescence
Ethanol, Alcohol Reagent, anhydrous, denatured
Ethyl Alcohol 95% (Grain Derived) FCC Grade
Ethyl Alcohol 95% (Synthetic) ACS/USP Grade
InChI=1/C2H6O/c1-2-3/h3H,2H2,1H
28147-EP2277868A1
28147-EP2277869A1
28147-EP2277870A1
28147-EP2295422A2
28147-EP2298305A1
28147-EP2298769A1
28147-EP2308852A1
28147-EP2308878A2
28147-EP2313400A1
28147-EP2371823A1
48516-EP2311824A1
48516-EP2311828A1
48516-EP2380568A1
Ethanol, >10 - 24% in a non hazardous diluent
Ethanol, >24 - 50% in a non hazardous diluent
Ethyl Alcohol Absolute (Synthetic) ACS/USP Grade
SR-01000944357
Ethanol, 95+%, pure, denat. with 5% wood spirit
Ethanol, puriss. p.a., absolute, >=99.8% (GC)
SR-01000944357-1
Ethanol, 99.5%, Extra Dry, absolute, AcroSeal(R)
Ethanol, denatured (5 % IPA, 5 % n-propylacetate)
I14-12648
Reagent Alcohol, used for histology tissue preparation
Ethanol, anhydrous, denatured, Spectrophotometric Grade
Ethyl alcohol, Pure, 190 proof, for molecular biology
Ethyl alcohol, Pure, 200 proof, anhydrous, >=99.5%
Ethyl alcohol, Pure, 200 proof, for molecular biology
Ethanol, absolute, >=99.8% (GC), sales not in Germany
Ethyl Alcohol Absolute (Dehydrated) USP, BP/EP, JP Grade
Ethyl alcohol, Pure, 200 proof, ACS reagent, >=99.5%
Reagent Alcohol, 70%, used for histology tissue preparation
Reagent Alcohol, 80%, used for histology tissue preparation
1E37B0D2-6209-4B03-A57D-500F3223C2DA
Alcohol, United States Pharmacopeia (USP) Reference Standard
Ethanol, >=99.5%, suitable for absorption spectrum analysis
Ethanol-water solutions, NIST(R) SRM(R) 1828b, six levels
Ethyl alcohol, Pure, 200 proof, HPLC/spectrophotometric grade
Reagent Alcohol, 95%, Used for histology tissue preparation
Ethanol solution, NIST(R) SRM(R) 2897a, nominal mass fraction 2%
Ethanol solution, NIST(R) SRM(R) 2898a, nominal mass fraction 6%
Ethanol solution, NIST(R) SRM(R) 2899a, nominal 25% by mass
Ethanol, 95+%, pure, anhydrous, denat. with up to 5% v/v ether
Ethanol, p.a., ACS reagent, reag. ISO, reag. Ph. Eur., 99.9%
Ethanol, suitable for 300 per JIS, >=99.5%, for residue analysis
Ethyl alcohol, Pure, 190 proof, meets USP testing specifications
Ethyl alcohol, Pure, 200 proof, anhydrous, ZerO2(TM), >=99.5%
Ethyl alcohol, Pure, 200 proof, meets USP testing specifications
Specially Denatured Alcohol, 190 proof, SDA 23A, contains Acetone
Specially Denatured Alcohol, 190 proof, SDA 2B-3, contains Toluene
Specially Denatured Alcohol, 190 proof, SDA 30, contains Methanol
Specially Denatured Alcohol, 190 proof, SDA 3A, contains Methanol
Specially Denatured Alcohol, 200 proof, SDA 23A, contains Acetone
Specially Denatured Alcohol, 200 proof, SDA 2B-3, contains Toluene
Specially Denatured Alcohol, 200 proof, SDA 30, contains Methanol
Specially Denatured Alcohol, 200 proof, SDA 3A, contains Methanol
Alcohol, Pharmaceutical Secondary Standard; Certified Reference Material
Dehydrated Alcohol, United States Pharmacopeia (USP) Reference Standard
Ethanol Fixative 80% v/v, suitable for fixing solution (blood films)
Ethanol solution, certified reference material, 2000 mug/mL in methanol
Ethanol standards 10% (v/v), 10 % (v/v) in H2O, analytical standard
Ethanol, absolute, for gradient elution, sales not in Germany, >=99.9%
Ethanol, absolute, for HPLC, sales not in Germany1, >=99.8% (GC)
Ethanol, absolute, semiconductor grade PURANAL(TM) (Honeywell 17826)
Ethanol, suitable for 1000 per JIS, >=99.5%, for residue analysis
Ethanol-water solution, NIST(R) SRM(R) 2894, nominal mass fraction 0.1%
Ethanol-water solution, NIST(R) SRM(R) 2895, nominal mass fraction 0.2%
Ethanol-water solution, NIST(R) SRM(R) 2896, nominal mass fraction 0.3%
Ethanol-water solution, NIST(R) SRM(R) 2900, nominal 95.6% by mass
Ethyl Alcohol Absolute (Dehydrated, Synthetic) USP, BP/EP, JP Grade
Ethyl alcohol, Pure, 140 proof, Excise Tax-free, Permit for use required
Ethyl alcohol, Pure, 160 proof, Excise Tax-free, Permit for use required
Ethyl alcohol, Pure, 190 proof, ACS spectrophotometric grade, 95.0%
Specially Denatured Alcohol, 190 proof, SDA 2B-4, contains Heptanes
Specially Denatured Alcohol, 190 proof, SDA 2B-4, contains n-Heptane
Specially Denatured Alcohol, 190 proof, SDA 2B-5, contains n-Hexane
Specially Denatured Alcohol, 190 proof, SDA 35A, contains Ethyl acetate
Specially Denatured Alcohol, 190 proof, SDA 3C, contains Isopropanol
Specially Denatured Alcohol, 200 proof, SDA 2B-4, contains Heptanes
Specially Denatured Alcohol, 200 proof, SDA 2B-4, contains n-Heptane
Specially Denatured Alcohol, 200 proof, SDA 2B-5, contains n-Hexane
Specially Denatured Alcohol, 200 proof, SDA 35A, contains Ethyl acetate
Specially Denatured Alcohol, 200 proof, SDA 3C, contains Isopropanol
Alcohol Determination-Alcohol, United States Pharmacopeia (USP) Reference Standard
Dehydrated Alcohol, Pharmaceutical Secondary Standard; Certified Reference Material
Ethanol Calibration Kit, ampule of 10 x 1.2 mL, certified reference material
Ethanol, absolute, reag. ISO, reag. Ph. Eur., >=99.8% (GC), liquid (clear, colorless)
Ethanol, for spectroscopy, anhydrous, denat. with 5% 2-Propanol + 5% Methanol
Ethanol, puriss. p.a., ACS reagent, absolute alcohol, without additive, A15 o1, >=99.8%
Ethanol, puriss. p.a., ACS reagent, prima fine spirit, without additive, F15 o1, ~96%
Ethanol, puriss., meets analytical specification of Ph.??Eur., BP, 96% (v/v)
Ethanol, puriss., meets analytical specification of Ph.??Eur., BP, 96.0-97.2%
Ethanol-10, 10 mg/dL in H2O, pack of 10 x 1.2 mL ampules, certified reference material
Ethanol-150, 150 mg/dL in H2O, ampule of 10 x 1.2 mL, certified reference material
Ethanol-25, 25 mg/dL in H2O, ampule of 10 x 1.2 mL, certified reference material
Ethanol-300, 300 mg/dL in H2O, ampule of 10 x 1.2 mL, certified reference material
Ethanol-40, 40 mg/dL in H2O, ampule of 10 x 1.2 mL, certified reference material
Ethanol-50, 50 mg/dL in H2O, ampule of 10 x 1.2 mL, certified reference material
Ethanol-500, 500 mg/dL in H2O, ampule of 10 x 1.2 mL, certified reference material
Ethanol-80, 80 mg/dL in H2O, ampule of 10 x 1.2 mL, certified reference material
Ethanol-80, 80 mg/dL in H2O, ampule of 5 x 5 mL, certified reference material
Ethanol-water solution, NIST(R) SRM(R) 2891, nominal mass fraction 0.02%
Ethanol-water solution, NIST(R) SRM(R) 2892, nominal mass fraction 0.04%
Ethanol-water solution, NIST(R) SRM(R) 2893, nominal mass fraction 0.08%
Specially Denatured Alcohol, 190 proof, SDA 39C, contains Diethyl phthalate
Specially Denatured Alcohol, 200 proof, SDA 39C, contains Diethyl phthalate
Ethanol, absolute, denaturated with 0.5-1.5 Vol.% 2-butanone and approx. 0.001% Bitrex (GC), >=98% (GC)
Ethanol, absolute, semiconductor grade PURANAL(TM) (Honeywell 17833), sales not in Germany, >=99.8% (vol.)
Ethanol, BioUltra, for molecular biology, >=99.8%, (absolute alcohol, without additive, A15 o1)
Ethanol, puriss., over molecular sieve (H2O <=0.01%), absolute alcohol, without additive, A15 o1, >=99.8%
Ethanol, purum, absolute ethanol, denaturated with 1% cyclohexane, A15 CYCLO1, >=99.8% (based on denaturant-free substance)
Ethanol, purum, absolute ethanol, denaturated with 2% 2-butanone, A15 MEK1, >=99.8% (based on denaturant-free substance)
Ethanol, purum, absolute ethanol, denaturated with 4.8% isopropanol, A15 IPA1, >=99.8% (based on denaturant-free substance)
Ethanol, purum, fine spirit, denaturated with 2% 2-butanone, F25 MEK1, ~96% (based on denaturant-free substance)
Ethanol, purum, fine spirit, denaturated with 4.8% methanol, F25 METHYL1, ~96% (based on denaturant-free substance)
Ethanol, purum, secunda spirit, denaturated with 2% 2-butanone and 0.5% 4-methyl-2-pentanone, S15, ~96% (based on denaturant-free substance)
Ethanol-100 (10 ampules/kit), 100 mg/dL in H2O, ampule of 10 x 1.2 mL, certified reference material
Ethanol-100 (5 ampules/kit), 100 mg/dL in H2O, ampule of 5 x 5 mL, certified reference material
Ethanol-20 (10 ampules/kit), 20 mg/dL in H2O, ampule of 10 x 1.2 mL, certified reference material
Ethanol-20 (5 ampules/kit), 20 mg/dL in H2O, ampule of 5 x 5 mL, certified reference material
Ethanol-200 (10 ampules/kit), 200 mg/dL in H2O, ampule of 10 x 1.2 mL, certified reference material
Ethanol-200 (5 ampules/kit), 200 mg/dL in H2O, ampule of 5 x 5 mL, certified reference material
Ethanol-400 (10 ampules/kit), 400 mg/dL in H2O, ampule of 10 x 1.2 mL, certified reference material
Ethanol-400 (5 ampules/kit), 400 mg/dL in H2O, ampule of 5 x 5 mL, certified reference material
Ethyl alcohol, Pure, 140 proof, meets water USP testing specifications, Excise Tax-free, Permit for use required
Ethyl alcohol, Pure, 190 proof, ACS reagent, meets USP testing specifications, Excise Tax-free, Permit for use required
Ethyl alcohol, Pure, 200 proof, ACS reagent, meets USP testing specifications, Excise Tax-free, Permit for use required
Specially Denatured Alcohol, 190 proof, SDA 40 (40-2), contains 0.14 % (v/v) tert-Butyl alcohol and Brucine sulfate
Specially Denatured Alcohol, 190 proof, SDA 40B, contains tert-Butyl alcohol and denatonium benzoate
Specially Denatured Alcohol, 200 proof, SDA 40 (40-2), contains 0.14 % (v/v) tert-Butyl alcohol and Brucine sulfate
Specially Denatured Alcohol, 200 proof, SDA 40B, contains tert-Butyl alcohol and denatonium benzoate

> <TPSA>
20.2

> <TotalAidCount>
616

> <TotalFormalCharge>
0

> <XLogP>
-0.1

> <database>
PubChem Compound

> <matchingCount>
176

> <primaryID>
702

> <queryTranslation>
7628[CompoundID] OR 244[CompoundID] OR 25059[CompoundID] OR 7618[CompoundID] OR 7641[CompoundID] OR 5053[CompoundID] OR 637511[CompoundID] OR 7714[CompoundID] OR 7762[CompoundID] OR 25429[CompoundID]
OR 8842[CompoundID] OR 7794[CompoundID] OR 637566[CompoundID] OR 7843[CompoundID] OR 174[CompoundID] OR 7870[CompoundID] OR 86102[CompoundID] OR 7888[CompoundID] OR 7896[CompoundID] OR 1140[CompoundID
] OR 8042[CompoundID] OR 8058[CompoundID] OR 8078[CompoundID] OR 8087[CompoundID] OR 8117[CompoundID] OR 8133[CompoundID] OR 115224[CompoundID] OR 8175[CompoundID] OR 8194[CompoundID] OR 445639[Compou
ndID] OR 4944[CompoundID] OR 8294[CompoundID] OR 93541[CompoundID] OR 8360[CompoundID] OR 8363[CompoundID] OR 656612[CompoundID] OR 125098[CompoundID] OR 3352[CompoundID] OR 3303913[CompoundID] OR 648
05[CompoundID] OR 31200[CompoundID] OR 1712058[CompoundID] OR 31236[CompoundID] OR 31239[CompoundID] OR 31265[CompoundID] OR 31266[CompoundID] OR 31276[CompoundID] OR 6950273[CompoundID] OR 518659[Com
poundID] OR 14896[CompoundID] OR 14798[CompoundID] OR 14829[CompoundID] OR 14830[CompoundID] OR 8635[CompoundID] OR 23266[CompoundID] OR 4284[CompoundID] OR 8693[CompoundID] OR 22311[CompoundID] OR 87
59[CompoundID] OR 8785[CompoundID] OR 2723810[CompoundID] OR 8857[CompoundID] OR 3893[CompoundID] OR 9936739[CompoundID] OR 516892[CompoundID] OR 5430[CompoundID] OR 9017[CompoundID] OR 15433[Compound
ID] OR 107720[CompoundID] OR 9552081[CompoundID] OR 164825[CompoundID] OR 10275455[CompoundID] OR 16666[CompoundID] OR 9839306[CompoundID] OR 5282227[CompoundID] OR 23676745[CompoundID] OR 32881[Compo
undID] OR 91581[CompoundID] OR 39800[CompoundID] OR 33344[CompoundID] OR 15962220[CompoundID] OR 33528[CompoundID] OR 5365075[CompoundID] OR 62829[CompoundID] OR 162381[CompoundID] OR 517202[CompoundI
D] OR 6433353[CompoundID] OR 2730[CompoundID] OR 5372405[CompoundID] OR 36081[CompoundID] OR 3120[CompoundID] OR 3017[CompoundID] OR 2969[CompoundID] OR 18827[CompoundID] OR 19518[CompoundID] OR 19658
[CompoundID] OR 38283[CompoundID] OR 2758[CompoundID] OR 10112[CompoundID] OR 10340[CompoundID] OR 712[CompoundID] OR 5794[CompoundID] OR 3347[CompoundID] OR 104150[CompoundID] OR 2912[CompoundID] OR
2450[CompoundID] OR 40326[CompoundID] OR 40585[CompoundID] OR 517055[CompoundID] OR 10913[CompoundID] OR 108242[CompoundID] OR 62097[CompoundID] OR 41679[CompoundID] OR 54680676[CompoundID] OR 62118[C
ompoundID] OR 753[CompoundID] OR 1030[CompoundID] OR 23673837[CompoundID] OR 54678504[CompoundID] OR 11442[CompoundID] OR 11463[CompoundID] OR 22230[CompoundID] OR 440917[CompoundID] OR 6054[CompoundI
D] OR 43234[CompoundID] OR 22629[CompoundID] OR 3039[CompoundID] OR 2735067[CompoundID] OR 6144[CompoundID] OR 702[CompoundID] OR 284[CompoundID] OR 176[CompoundID] OR 91688[CompoundID] OR 22947[Compo
undID] OR 47445[CompoundID] OR 1711973[CompoundID] OR 243[CompoundID] OR 10342051[CompoundID] OR 5281875[CompoundID] OR 3776[CompoundID] OR 6224[CompoundID] OR 104926[CompoundID] OR 8755[CompoundID] O
R 338[CompoundID] OR 123622[CompoundID] OR 23954[CompoundID] OR 6334[CompoundID] OR 2537[CompoundID] OR 24261[CompoundID] OR 23665760[CompoundID] OR 83975[CompoundID] OR 784[CompoundID] OR 24437[Compo
undID] OR 5360315[CompoundID] OR 311[CompoundID] OR 6549[CompoundID] OR 107689[CompoundID] OR 17100[CompoundID] OR 24976875[CompoundID] OR 6654[CompoundID] OR 71245[CompoundID] OR 6442842[CompoundID]
OR 62334[CompoundID] OR 54698175[CompoundID] OR 6328154[CompoundID] OR 24762[CompoundID] OR 440950[CompoundID] OR 7017[CompoundID] OR 5281873[CompoundID] OR 323[CompoundID] OR 5281167[CompoundID] OR 7
175[CompoundID] OR 7292[CompoundID] OR 6335613[CompoundID] OR 7456[CompoundID] OR 7462[CompoundID]

> <resultIndex>
168

> <resultRange>
1-176

> <textQuery>
7628,244,25059,7618,7641,5053,637511,7714,7762,25429,8842,7794,637566,7843,174,7870,86102,7888,7896,1140,8042,8058,8078,8087,8117,8133,115224,8175,8194,445639,4944,8294,93541,8360,8363,656612,125098,3
352,3303913,64805,31200,1712058,31236,31239,31265,31266,31276,6950273,518659,14896,14798,14829,14830,8635,23266,4284,8693,22311,8759,8785,2723810,8857,3893,9936739,516892,5430,9017,15433,107720,955208
1,164825,10275455,16666,9839306,5282227,23676745,32881,91581,39800,33344,15962220,33528,5365075,62829,162381,517202,6433353,2730,5372405,36081,3120,3017,2969,18827,19518,19658,38283,2758,10112,10340,7
12,5794,3347,104150,2912,2450,40326,40585,517055,10913,108242,62097,41679,54680676,62118,753,1030,23673837,54678504,11442,11463,22230,440917,6054,43234,22629,3039,2735067,6144,702,284,176,91688,22947,
47445,1711973,243,10342051,5281875,3776,6224,104926,8755,338,123622,23954,6334,2537,24261,23665760,83975,784,24437,5360315,311,6549,107689,17100,24976875,6654,71245,6442842,62334,54698175,6328154,2476
2,440950,7017,5281873,323,5281167,7175,7292,6335613,7456,7462

$$$$
338
  SciTegic10191915303D

 16 16  0  0  0  0            999 V2000
    2.1680    1.7620   -0.6170 O   0  0
    1.0280    1.7340    0.0670 C   0  0
    0.5730    2.6870    0.6570 O   0  0
    0.3170    0.4200    0.0670 C   0  0
    1.0630   -0.7740    0.0670 C   0  0
    0.4050   -2.0160    0.0670 C   0  0
   -0.9980   -2.0670    0.0670 C   0  0
   -1.7440   -0.8750    0.0670 C   0  0
   -1.0920    0.3710    0.0670 C   0  0
   -1.8040    1.4780    0.0670 O   0  0
    2.6760    2.5820   -0.6560 H   0  0
    2.1430   -0.7440    0.0670 H   0  0
    0.9790   -2.9300    0.0670 H   0  0
   -1.5040   -3.0200    0.0670 H   0  0
   -2.8240   -0.9200    0.0670 H   0  0
   -1.3850    2.3100   -0.1870 H   0  0
  1  2  1  0
  2  3  2  0
  2  4  1  0
  4  5  2  0
  4  9  1  0
  5  6  1  0
  6  7  2  0
  7  8  1  0
  8  9  2  0
  9 10  1  0
  1 11  1  0
  5 12  1  0
  6 13  1  0
  7 14  1  0
  8 15  1  0
 10 16  1  0
M  END
> <Name>
338

> <OBJECTID>
9223372745527721995

> <ActiveAidCount>
62

> <AtomChiralCount>
0

> <AtomChiralDefCount>
0

> <AtomChiralUndefCount>
0

> <BondChiralCount>
0

> <BondChiralDefCount>
0

> <BondChiralUndefCount>
0

> <CID>
338

> <CanonicalSmiles>
C1=CC=C(C(=C1)C(=O)O)O

> <Complexity>
133

> <CovalentUnitCount>
1

> <CreateDate>
2004/09/16 00:00

> <HeavyAtomCount>
10

> <HydrogenBondAcceptorCount>
3

> <HydrogenBondDonorCount>
2

> <IUPACName>
2-hydroxybenzoic acid

> <InChI>
InChI=1S/C7H6O3/c8-6-4-2-1-3-5(6)7(9)10/h1-4,8H,(H,9,10)

> <InChIKey>
YGSDEFSMJLZEOE-UHFFFAOYSA-N

> <IsomericSmiles>
C1=CC=C(C(=C1)C(=O)O)O

> <IsotopeAtomCount>
0

> <MeSHHeading>
Salicylic Acid

> <MeSHTerm>
ortho-Hydroxybenzoic Acid
2 Hydroxybenzoic Acid
ortho Hydroxybenzoic Acid
o-Hydroxybenzoic Acid
Acid, o-Hydroxybenzoic
Acid, ortho-Hydroxybenzoic
Salicylic Acid
Acid, 2-Hydroxybenzoic
o Hydroxybenzoic Acid
Acid, Salicylic
2-Hydroxybenzoic Acid

> <MolecularFormula>
C7H6O3

> <MolecularWeight>
138.12

> <PharmAction>
Pharmacologic Actions
Antifungal Agents
Therapeutic Uses
Keratolytic Agents
Anti-Infective Agents
Chemical Actions and Uses
Dermatologic Agents

> <RotatableBondCount>
1

> <Smiles>
OC(c1c(O)cccc1)=O

> <SourceCategory>
Chemical Vendors
Research and Development
Legacy Depositors
Curation Efforts
Governmental Organizations
NIH Initiatives
Subscription Services
Journal Publishers

> <Synonym>
salicylic acid
2-Hydroxybenzoic acid
69-72-7
o-hydroxybenzoic acid
2-Carboxyphenol
o-Carboxyphenol
Rutranex
Salonil
Retarder W
Keralyt
Duoplant
Freezone
Saligel
Ionil
Psoriacid-S-stift
salicylate
Stri-Dex
Salicylic acid soap
Benzoic acid, 2-hydroxy-
Salicylic acid collodion
Verrugon
Phenol-2-carboxylic acid
Acidum salicylicum
Trans-Ver-Sal
Orthohydroxybenzoic acid
2-Hydroxybenzenecarboxylic acid
Acido salicilico
Ionil-Plus
Salicylic acid, tech.
Kyselina salicylova
Clear away wart remover
Duofil wart remover
Domerine
Sebucare
Duofilm
Sebulex
Salicyclic acid
Ionil plus
Dr. Scholl's corn removers
Kyselina salicylova [Czech]
Dr. Scholl's callus removers
Dr. Scholl's wart remover kit
Kyselina 2-hydroxybenzoova
Occlusal
Acido salicilico [Italian]
Advanced pain relief corn removers
Caswell No. 731
Kyselina 2-hydroxybenzoova [Czech]
Advanced pain relief callus removers
Acido o-idrossibenzoico [Italian]
NSC 180
Salicylic acid [USAN:JAN]
Salicylic acid & Sulfur Soap
2-hydroxy-benzoic acid
CCRIS 6714
HSDB 672
AI3-02407
UNII-O414PZ4LPZ
MFCD00002439
EPA Pesticide Chemical Code 076602
BRN 0774890
CHEBI:16914
EINECS 200-712-3
CHEMBL424
O414PZ4LPZ
MLS000069653
NSC180
K 537
YGSDEFSMJLZEOE-UHFFFAOYSA-N
ATA fraction 10, ammonium salt
NCGC00159447-05
SMR000059163
Mediplast pads
Salicylic acid, 99+%
Akurza Lotion
Hydrisalic Gel
Akurza Cream
Salex Lotion
Salex Cream
DSSTox_CID_6368
DuoPlant Gel
DHS Sal Shampoo
DSSTox_RID_78106
P&S Shampoo
DSSTox_GSID_26368
Acido o-idrossibenzoico
Durasal
ortho-Hydroxybenzoic Acid
Salicylic acid, 99+%, ACS reagent
Retarder SAX
salicylicum acidum
CAS-69-72-7
Propa pH Peel-Off Acne Mask
Salicylic acid, tech
2-hydroxy(1-14c)benzoic acid
NSC629474
phenol derivative, 7
Salicylic acid (TN)
Benzoic acid, hydroxy-
SALICYLIC ACID, ACS
Salicylic acid [USP:JAN]
salicylic
Salicylic acid (6CI,8CI)
salicylic-acid
Anti-blemish
hydroxy-benzoic acid
ortho-salicylic acid
CMC_13852
Fostex (Salt/Mix)
Pernox (Salt/Mix)
Duofilm Wart Remover
Phenol-2-carboxylate
Duofilm (Salt/Mix)
Salicylic Acid,(S)
Sebulex (Salt/Mix)
Domerine (Salt/Mix)
Sebucare (Salt/Mix)
2-Hydroxybenzoate, I
Natural Salicylic Acid
o-hydroxy benzoic acid
2-hydroxy benzoic acid
Spectrum_000948
Salicylic acid,medicinal
ACMC-1AZIK
Opera_ID_582
Sulfasalazine Impurity H
AC1Q1HCK
Salicylic acid ACS grade
WLN: QVR BQ
Benzoic acid, o-hydroxy-
Bazuka Extra Strength Gel
2-Hydroxybenzenecarboxylate
bmse000252
Epitope ID:124929
Retarder SAX (Salt/Mix)
UPCMLD-DP126
EC 200-712-3
AC1Q72IF
SCHEMBL1967
Oprea1_040343
KBioSS_001428
KSC203I1R
ARONIS27188
BIDD:ER0602
DivK1c_000301
Salicylic acid (JP17/USP)
2-Hydroxybenzoic Acid, Natural
AC1L190M
FEMA3985
GTPL4306
SALICYLIC ACID (SEE ALSO ALPHA HYDROXY ACIDS)
SGCUT00012
ZINC1554
Salicylic acid, >=99%, FG
Salicylic acid, LR, >=99%
component of Tinver (Salt/Mix)
DTXSID7026368
UPCMLD-DP126:001
BDBM26193
component of Keralyt (Salt/Mix)
CTK1A3418
KBio1_000301
KBio2_001428
KBio2_003996
KBio2_006564
KS-00000KPH
Alpha/Beta Hydroxy Acids (Glycolic Acid, Salicylic Acid)
E9A559BE-383B-4F83-BC02-3031D03D558A
NSC-180
NINDS_000301
HMS2233A10
HMS3373M19
KUC106694N
Salicylic acid, p.a., 99.0%
Benzoic acid, 2-hydroxy- (9CI)
BCP09067
HY-B0167
to_000004
Tox21_113453
Tox21_201471
Tox21_303109
ANW-43703
s4539
SBB052826
STK258681
AKOS000118979
Salicylic acid, BioXtra, >=99.0%
CCG-212792
DB00936
LS-2169
MCULE-8407868694
NE10196
RP20408
RTR-032850
ALPHA/BETA HYDROXY ACIDS (SALICYLIC ACID) (SEE ALPHA/BETA HYDROXY ACIDS)
IDI1_000301
KS-000048O6
SMP2_000145
NCGC00159447-02
NCGC00159447-04
NCGC00159447-06
NCGC00257065-01
NCGC00259022-01
29656-58-4
AJ-08047
AK112186
AN-41922
BC221968
BP-12826
KSC-11-207-4
Salicylic acid & Sulfur Soap (Salt/Mix)
Salicylic acid, ACS reagent, >=99.0%
Salicylic acid, plant cell culture tested
Salicylic acid, ReagentPlus(R), >=99%
SC-18305
TS-03583
Salicylic Acid 1.0 mg/ml in Acetonitrile
SBI-0051510.P003
AB1002436
ST2416966
TR-032850
FT-0645123
Salicylic acid, tested according to Ph.Eur.
ST51046715
Salicylic acid, SAJ first grade, >=99.0%
3253-EP2269610A2
3253-EP2269988A2
3253-EP2270002A1
3253-EP2270006A1
3253-EP2270008A1
3253-EP2270011A1
3253-EP2270113A1
3253-EP2272935A1
3253-EP2275401A1
3253-EP2275413A1
3253-EP2275420A1
3253-EP2277867A2
3253-EP2280003A2
3253-EP2280008A2
3253-EP2280010A2
3253-EP2281563A1
3253-EP2281816A1
3253-EP2284146A2
3253-EP2284147A2
3253-EP2284160A1
3253-EP2284178A2
3253-EP2284179A2
3253-EP2287156A1
3253-EP2289510A1
3253-EP2289883A1
3253-EP2289890A1
3253-EP2292592A1
3253-EP2292597A1
3253-EP2292617A1
3253-EP2295053A1
3253-EP2295401A2
3253-EP2295416A2
3253-EP2295424A1
3253-EP2295433A2
3253-EP2298734A2
3253-EP2298735A1
3253-EP2298748A2
3253-EP2298757A2
3253-EP2298758A1
3253-EP2298759A1
3253-EP2298764A1
3253-EP2298765A1
3253-EP2301931A1
3253-EP2301937A1
3253-EP2301940A1
3253-EP2305243A1
3253-EP2305248A1
3253-EP2305257A1
3253-EP2305646A1
3253-EP2305651A1
3253-EP2305655A2
3253-EP2305662A1
3253-EP2305663A1
3253-EP2305664A1
3253-EP2305675A1
3253-EP2308851A1
3253-EP2308854A1
3253-EP2308873A1
3253-EP2308875A1
3253-EP2311807A1
3253-EP2311809A1
3253-EP2311810A1
3253-EP2311814A1
3253-EP2311831A1
3253-EP2311842A2
3253-EP2314574A1
3253-EP2314588A1
3253-EP2316457A1
3253-EP2316458A1
3253-EP2316459A1
3253-EP2316825A1
3253-EP2316826A1
3253-EP2316827A1
3253-EP2316828A1
3253-EP2316836A1
3253-EP2372017A1
3253-EP2380874A2
C00805
D00097
Salicylic acid, Vetec(TM) reagent grade, 98%
44642-EP2281819A1
44642-EP2292619A1
44642-EP2305659A1
44642-EP2311818A1
AB00489876_15
BENZOIC ACID,2-HYDROXY SALICYLIC ACID
Salicylic acid, puriss. p.a., >=99.0% (T)
197900-EP2269975A2
197900-EP2269997A2
197900-EP2275415A2
component of Solarcaine first aid spray (Salt/Mix)
I04-0192
J-509667
component of Fostex medicated bar and cream (Salt/Mix)
F2191-0216
Salicylic acid, certified reference material, TraceCERT(R)
UNII-I3P9R8317T component YGSDEFSMJLZEOE-UHFFFAOYSA-N
Salicylic acid, British Pharmacopoeia (BP) Reference Standard
Salicylic acid, European Pharmacopoeia (EP) Reference Standard
Salicylic acid, United States Pharmacopeia (USP) Reference Standard
InChI=1/C7H6O3/c8-6-4-2-1-3-5(6)7(9)10/h1-4,8H,(H,9,10
Salicylic acid, 1.0 mg/mL in acetonitrile, ampule of 1 mL, certified reference material
Salicylic acid, Pharmaceutical Secondary Standard; Certified Reference Material
8052-31-1
Salicylic acid, meets analytical specification of Ph. Eur., BP, USP, 99.5-100.5% (calc. to the dried substance)

> <TPSA>
57.5

> <TotalAidCount>
1438

> <TotalFormalCharge>
0

> <XLogP>
2.3

> <database>
PubChem Compound

> <matchingCount>
176

> <primaryID>
338

> <queryTranslation>
7628[CompoundID] OR 244[CompoundID] OR 25059[CompoundID] OR 7618[CompoundID] OR 7641[CompoundID] OR 5053[CompoundID] OR 637511[CompoundID] OR 7714[CompoundID] OR 7762[CompoundID] OR 25429[CompoundID]
OR 8842[CompoundID] OR 7794[CompoundID] OR 637566[CompoundID] OR 7843[CompoundID] OR 174[CompoundID] OR 7870[CompoundID] OR 86102[CompoundID] OR 7888[CompoundID] OR 7896[CompoundID] OR 1140[CompoundID
] OR 8042[CompoundID] OR 8058[CompoundID] OR 8078[CompoundID] OR 8087[CompoundID] OR 8117[CompoundID] OR 8133[CompoundID] OR 115224[CompoundID] OR 8175[CompoundID] OR 8194[CompoundID] OR 445639[Compou
ndID] OR 4944[CompoundID] OR 8294[CompoundID] OR 93541[CompoundID] OR 8360[CompoundID] OR 8363[CompoundID] OR 656612[CompoundID] OR 125098[CompoundID] OR 3352[CompoundID] OR 3303913[CompoundID] OR 648
05[CompoundID] OR 31200[CompoundID] OR 1712058[CompoundID] OR 31236[CompoundID] OR 31239[CompoundID] OR 31265[CompoundID] OR 31266[CompoundID] OR 31276[CompoundID] OR 6950273[CompoundID] OR 518659[Com
poundID] OR 14896[CompoundID] OR 14798[CompoundID] OR 14829[CompoundID] OR 14830[CompoundID] OR 8635[CompoundID] OR 23266[CompoundID] OR 4284[CompoundID] OR 8693[CompoundID] OR 22311[CompoundID] OR 87
59[CompoundID] OR 8785[CompoundID] OR 2723810[CompoundID] OR 8857[CompoundID] OR 3893[CompoundID] OR 9936739[CompoundID] OR 516892[CompoundID] OR 5430[CompoundID] OR 9017[CompoundID] OR 15433[Compound
ID] OR 107720[CompoundID] OR 9552081[CompoundID] OR 164825[CompoundID] OR 10275455[CompoundID] OR 16666[CompoundID] OR 9839306[CompoundID] OR 5282227[CompoundID] OR 23676745[CompoundID] OR 32881[Compo
undID] OR 91581[CompoundID] OR 39800[CompoundID] OR 33344[CompoundID] OR 15962220[CompoundID] OR 33528[CompoundID] OR 5365075[CompoundID] OR 62829[CompoundID] OR 162381[CompoundID] OR 517202[CompoundI
D] OR 6433353[CompoundID] OR 2730[CompoundID] OR 5372405[CompoundID] OR 36081[CompoundID] OR 3120[CompoundID] OR 3017[CompoundID] OR 2969[CompoundID] OR 18827[CompoundID] OR 19518[CompoundID] OR 19658
[CompoundID] OR 38283[CompoundID] OR 2758[CompoundID] OR 10112[CompoundID] OR 10340[CompoundID] OR 712[CompoundID] OR 5794[CompoundID] OR 3347[CompoundID] OR 104150[CompoundID] OR 2912[CompoundID] OR
2450[CompoundID] OR 40326[CompoundID] OR 40585[CompoundID] OR 517055[CompoundID] OR 10913[CompoundID] OR 108242[CompoundID] OR 62097[CompoundID] OR 41679[CompoundID] OR 54680676[CompoundID] OR 62118[C
ompoundID] OR 753[CompoundID] OR 1030[CompoundID] OR 23673837[CompoundID] OR 54678504[CompoundID] OR 11442[CompoundID] OR 11463[CompoundID] OR 22230[CompoundID] OR 440917[CompoundID] OR 6054[CompoundI
D] OR 43234[CompoundID] OR 22629[CompoundID] OR 3039[CompoundID] OR 2735067[CompoundID] OR 6144[CompoundID] OR 702[CompoundID] OR 284[CompoundID] OR 176[CompoundID] OR 91688[CompoundID] OR 22947[Compo
undID] OR 47445[CompoundID] OR 1711973[CompoundID] OR 243[CompoundID] OR 10342051[CompoundID] OR 5281875[CompoundID] OR 3776[CompoundID] OR 6224[CompoundID] OR 104926[CompoundID] OR 8755[CompoundID] O
R 338[CompoundID] OR 123622[CompoundID] OR 23954[CompoundID] OR 6334[CompoundID] OR 2537[CompoundID] OR 24261[CompoundID] OR 23665760[CompoundID] OR 83975[CompoundID] OR 784[CompoundID] OR 24437[Compo
undID] OR 5360315[CompoundID] OR 311[CompoundID] OR 6549[CompoundID] OR 107689[CompoundID] OR 17100[CompoundID] OR 24976875[CompoundID] OR 6654[CompoundID] OR 71245[CompoundID] OR 6442842[CompoundID]
OR 62334[CompoundID] OR 54698175[CompoundID] OR 6328154[CompoundID] OR 24762[CompoundID] OR 440950[CompoundID] OR 7017[CompoundID] OR 5281873[CompoundID] OR 323[CompoundID] OR 5281167[CompoundID] OR 7
175[CompoundID] OR 7292[CompoundID] OR 6335613[CompoundID] OR 7456[CompoundID] OR 7462[CompoundID]

> <resultIndex>
169

> <resultRange>
1-176

> <textQuery>
7628,244,25059,7618,7641,5053,637511,7714,7762,25429,8842,7794,637566,7843,174,7870,86102,7888,7896,1140,8042,8058,8078,8087,8117,8133,115224,8175,8194,445639,4944,8294,93541,8360,8363,656612,125098,3
352,3303913,64805,31200,1712058,31236,31239,31265,31266,31276,6950273,518659,14896,14798,14829,14830,8635,23266,4284,8693,22311,8759,8785,2723810,8857,3893,9936739,516892,5430,9017,15433,107720,955208
1,164825,10275455,16666,9839306,5282227,23676745,32881,91581,39800,33344,15962220,33528,5365075,62829,162381,517202,6433353,2730,5372405,36081,3120,3017,2969,18827,19518,19658,38283,2758,10112,10340,7
12,5794,3347,104150,2912,2450,40326,40585,517055,10913,108242,62097,41679,54680676,62118,753,1030,23673837,54678504,11442,11463,22230,440917,6054,43234,22629,3039,2735067,6144,702,284,176,91688,22947,
47445,1711973,243,10342051,5281875,3776,6224,104926,8755,338,123622,23954,6334,2537,24261,23665760,83975,784,24437,5360315,311,6549,107689,17100,24976875,6654,71245,6442842,62334,54698175,6328154,2476
2,440950,7017,5281873,323,5281167,7175,7292,6335613,7456,7462

$$$$
323
  SciTegic10191915303D

 17 18  0  0  0  0            999 V2000
   -3.3900    1.6860    0.3770 O   0  0
   -2.3860    1.0310    0.2090 C   0  0
   -2.5230   -0.3500   -0.3090 C   0  0
   -1.4270   -1.1070   -0.5120 C   0  0
   -0.0930   -0.5310   -0.2050 C   0  0
   -0.0270    0.7990    0.2910 C   0  0
   -1.1580    1.5180    0.4750 O   0  0
    1.2330    1.3670    0.5940 C   0  0
    2.4160    0.6130    0.4000 C   0  0
    2.3420   -0.7110   -0.0960 C   0  0
    1.0860   -1.2890   -0.3980 C   0  0
   -3.5040   -0.7520   -0.5230 H   0  0
   -1.5190   -2.1170   -0.8910 H   0  0
    1.2930    2.3770    0.9730 H   0  0
    3.3750    1.0490    0.6330 H   0  0
    3.2460   -1.2830   -0.2400 H   0  0
    1.0360   -2.2990   -0.7770 H   0  0
  1  2  2  0
  2  3  1  0
  2  7  1  0
  3  4  2  0
  4  5  1  0
  5  6  2  0
  5 11  1  0
  6  7  1  0
  6  8  1  0
  8  9  2  0
  9 10  1  0
 10 11  2  0
  3 12  1  0
  4 13  1  0
  8 14  1  0
  9 15  1  0
 10 16  1  0
 11 17  1  0
M  END
> <Name>
323

> <OBJECTID>
9223372749822689291

> <ActiveAidCount>
55

> <AtomChiralCount>
0

> <AtomChiralDefCount>
0

> <AtomChiralUndefCount>
0

> <BondChiralCount>
0

> <BondChiralDefCount>
0

> <BondChiralUndefCount>
0

> <CID>
323

> <CanonicalSmiles>
C1=CC=C2C(=C1)C=CC(=O)O2

> <Complexity>
196

> <CovalentUnitCount>
1

> <CreateDate>
2004/09/16 00:00

> <HeavyAtomCount>
11

> <HydrogenBondAcceptorCount>
2

> <HydrogenBondDonorCount>
0

> <IUPACName>
chromen-2-one

> <InChI>
InChI=1S/C9H6O2/c10-9-6-5-7-3-1-2-4-8(7)11-9/h1-6H

> <InChIKey>
ZYGHJZDHTFUPRJ-UHFFFAOYSA-N

> <IsomericSmiles>
C1=CC=C2C(=C1)C=CC(=O)O2

> <IsotopeAtomCount>
0

> <MeSHHeading>
coumarin

> <MeSHTerm>
5,6-benzo-alpha-pyrone
1,2-benzopyrone
coumarin

> <MolecularFormula>
C9H6O2

> <MolecularWeight>
146.14

> <RotatableBondCount>
0

> <Smiles>
O=C1Oc(cccc2)c2C=C1

> <SourceCategory>
Chemical Vendors
Legacy Depositors
Research and Development
Curation Efforts
Governmental Organizations
NIH Initiatives
Subscription Services
Journal Publishers

> <Synonym>
coumarin
91-64-5
2H-Chromen-2-one
2H-1-Benzopyran-2-one
1,2-Benzopyrone
cumarin
Rattex
Tonka bean camphor
Coumarinic anhydride
chromen-2-one
Coumarine
Benzo-alpha-pyrone
cis-o-Coumarinic acid lactone
o-Hydroxycinnamic acid lactone
o-Hydroxycinnamic lactone
2-Oxo-1,2-benzopyran
Coumarinic lactone
Kumarin
Benzo-a-pyrone
Kumarin [Czech]
2H-1-Benzopyran, 2-oxo-
5,6-Benzo-2-pyrone
5,6-Benzo-alpha-pyrone
2H-Benzo(b)pyran-2-one
2H-Benzo[b]pyran-2-one
1-Benzopyran-2-one
Caswell No. 259C
o-Coumaric acid lactone
o-Hydroxyzimtsaure-lacton
NCI C07103
cis-o-Coumaric acid anhydride
benzopyranone
Benzopyrone
o-Hydroxyzimtsaure-lacton [German]
UNII-A4VZ22K1WT
Benzopyran-2-one
NSC 8774
MFCD00006850
2-Propenoic acid, 3-(2-hydroxyphenyl)-, delta-lactone
CCRIS 181
EPA Pesticide Chemical Code 127301
BRN 0383644
C9H6O2
Benzo-.alpha.-pyrone
Cinnamic acid, o-hydroxy-, delta-lactone
CHEBI:28794
2H-Benzopyran-2-one
AI3-00753
HSDB 1623
o-hydroxycinnamic acid delta-lactone
2-oxo-2H-1-benzopyran
EINECS 202-086-7
3-(2-Hydroxyphenyl)-2-propenoic delta-lactone
103802-83-1
A4VZ22K1WT
CHEMBL6466
2-Propenoic acid, 3-(2-hydroxyphenyl)-delta-lactone
MLS000028741
NSC8774
ZYGHJZDHTFUPRJ-UHFFFAOYSA-N
Coumarin, 99+%
NCGC00091502-01
Coumarin, >=98%
SMR000059040
ST023509
DSSTox_CID_348
DSSTox_RID_75529
DSSTox_GSID_20348
2-Propenoic acid, 3-(2-hydroxyphenyl)-, d-lactone
CAS-91-64-5
Coumarin [NF]
COU
Coumarin [NF X]
SR-01000721887
chromenone
chromen-one
d-lactone
coumarinac lactone
Benzo-2-pyrone
benzopyrylium olate
Coumarin (DCF)
1, 2-Benzopyrone
Venalot mono (TN)
CUMARINA
Coumarinic acid lactone
PubChem21620
Spectrum_001336
ACMC-20aj0i
Opera_ID_268
Coumarinic acid lactone
2H-Chromen-2-one #
3-(2-hydroxyphenyl)-
2H-1-benzopyran-2-on
AC1Q6HKG
Spectrum2_000303
Spectrum3_001772
Spectrum4_001818
Spectrum5_000555
2-oxo-1,2-benzopy ran
bmse000077
Epitope ID:114082
1,2-Benzopyrone, Cumarin
EC 202-086-7
AC1L18ZG
AC1Q6CR1
cis-O-coumaric acid lactone
SCHEMBL6252
WLN: T66 BOVJ
BSPBio_003263
KBioGR_002460
KBioSS_001816
5-17-10-00143 (Beilstein Handbook Reference)
MLS001148422
MLS002454395
{2H-Benzo[b]pyran-2-one}
ARONIS24593
BIDD:ER0667
SPECTRUM1400208
SPBio_000266
Cinnamic acid, .delta.-lactone
Coumarin, >=99% (HPLC)
DTXSID7020348
BDBM12342
KBio2_001816
KBio2_004384
KBio2_006952
KBio3_002764
ZINC74709
HMS1923M11
HMS2091E19
HMS2232H18
HMS3369L08
HMS3652B05
Pharmakon1600-01400208
HY-N0709
NSC-8774
Tox21_111141
Tox21_202427
Tox21_300057
ANW-75568
BBL009203
CCG-38580
NSC755852
RW2544
s4170
SBB000094
STK066167
AKOS000120175
Tox21_111141_1
2H-chromen-2-one (ACD/Name 4.0)
CR-0048
CS-8148
DB04665
LS-1926
MCULE-5433669098
NE10460
NSC-755852
RTR-003307
SDCCGMLS-0066912.P001
TRA0051794
TRA0064405
KS-000046K1
NCGC00091502-02
NCGC00091502-03
NCGC00091502-04
NCGC00091502-05
NCGC00091502-06
NCGC00091502-07
NCGC00091502-08
NCGC00091502-09
NCGC00091502-11
NCGC00254092-01
NCGC00259976-01
AJ-10333
AN-24222
K669
NCI60_041938
R539
SC-19598
ZB002686
SBI-0061760.P002
AB1008368
DB-057267
Cinnamic acid, o-hydroxy-, .delta.-lactone
Coumarin, Vetec(TM) reagent grade, >=99%
FT-0606287
N1707
ST24028147
SW220278-1
1930-EP2269987A1
1930-EP2270018A1
1930-EP2270895A2
1930-EP2272828A1
1930-EP2272972A1
1930-EP2272973A1
1930-EP2275409A1
1930-EP2276085A1
1930-EP2277872A1
1930-EP2278637A1
1930-EP2284170A1
1930-EP2284920A1
1930-EP2287158A1
1930-EP2292593A2
1930-EP2295053A1
1930-EP2295421A1
1930-EP2298312A1
1930-EP2298780A1
1930-EP2298828A1
1930-EP2299509A1
1930-EP2299510A1
1930-EP2299785A1
1930-EP2301921A1
1930-EP2305689A1
1930-EP2305808A1
1930-EP2306788A1
1930-EP2306789A1
1930-EP2308872A1
1930-EP2309584A1
1930-EP2311842A2
1930-EP2316829A1
1930-EP2316974A1
1930-EP2371810A1
1930-EP2371812A1
A14543
BIM-0061760.0001
C05851
D07751
16253-EP2281563A1
16253-EP2292593A2
16253-EP2316459A1
22856-EP2275469A1
22856-EP2287159A1
22856-EP2287940A1
22856-EP2289965A1
22856-EP2298774A1
22856-EP2301926A1
22856-EP2305808A1
22856-EP2315502A1
30441-EP2284170A1
30441-EP2311835A1
45232-EP2311806A2
AB00375898_11
AB00375898_12
Coumarin, primary pharmaceutical reference standard
CU-01000013121-2
I14-6974
Q-100890
SR-01000721887-2
SR-01000721887-3
BRD-K23913458-001-02-5
BRD-K23913458-001-13-2
Coumarin, certified reference material, TraceCERT(R)
Propenoic acid, 3-(2-hydroxyphenyl)-, delta-lactone
Z57169486
Coumarin, European Pharmacopoeia (EP) Reference Standard
F3096-1712
1,2-Benzopyrone; 1-Benzopyran-2-one; 2H-Chromen-2-one
2-Propenoic acid, 3-(2-hydroxyphenyl)-, .delta.-lactone
D3E956C4-9541-4F57-9435-7D915C38E19E
InChI=1/C9H6O2/c10-9-6-5-7-3-1-2-4-8(7)11-9/h1-6

> <TPSA>
26.3

> <TotalAidCount>
1587

> <TotalFormalCharge>
0

> <XLogP>
1.4

> <database>
PubChem Compound

> <matchingCount>
176

> <primaryID>
323

> <queryTranslation>
7628[CompoundID] OR 244[CompoundID] OR 25059[CompoundID] OR 7618[CompoundID] OR 7641[CompoundID] OR 5053[CompoundID] OR 637511[CompoundID] OR 7714[CompoundID] OR 7762[CompoundID] OR 25429[CompoundID]
OR 8842[CompoundID] OR 7794[CompoundID] OR 637566[CompoundID] OR 7843[CompoundID] OR 174[CompoundID] OR 7870[CompoundID] OR 86102[CompoundID] OR 7888[CompoundID] OR 7896[CompoundID] OR 1140[CompoundID
] OR 8042[CompoundID] OR 8058[CompoundID] OR 8078[CompoundID] OR 8087[CompoundID] OR 8117[CompoundID] OR 8133[CompoundID] OR 115224[CompoundID] OR 8175[CompoundID] OR 8194[CompoundID] OR 445639[Compou
ndID] OR 4944[CompoundID] OR 8294[CompoundID] OR 93541[CompoundID] OR 8360[CompoundID] OR 8363[CompoundID] OR 656612[CompoundID] OR 125098[CompoundID] OR 3352[CompoundID] OR 3303913[CompoundID] OR 648
05[CompoundID] OR 31200[CompoundID] OR 1712058[CompoundID] OR 31236[CompoundID] OR 31239[CompoundID] OR 31265[CompoundID] OR 31266[CompoundID] OR 31276[CompoundID] OR 6950273[CompoundID] OR 518659[Com
poundID] OR 14896[CompoundID] OR 14798[CompoundID] OR 14829[CompoundID] OR 14830[CompoundID] OR 8635[CompoundID] OR 23266[CompoundID] OR 4284[CompoundID] OR 8693[CompoundID] OR 22311[CompoundID] OR 87
59[CompoundID] OR 8785[CompoundID] OR 2723810[CompoundID] OR 8857[CompoundID] OR 3893[CompoundID] OR 9936739[CompoundID] OR 516892[CompoundID] OR 5430[CompoundID] OR 9017[CompoundID] OR 15433[Compound
ID] OR 107720[CompoundID] OR 9552081[CompoundID] OR 164825[CompoundID] OR 10275455[CompoundID] OR 16666[CompoundID] OR 9839306[CompoundID] OR 5282227[CompoundID] OR 23676745[CompoundID] OR 32881[Compo
undID] OR 91581[CompoundID] OR 39800[CompoundID] OR 33344[CompoundID] OR 15962220[CompoundID] OR 33528[CompoundID] OR 5365075[CompoundID] OR 62829[CompoundID] OR 162381[CompoundID] OR 517202[CompoundI
D] OR 6433353[CompoundID] OR 2730[CompoundID] OR 5372405[CompoundID] OR 36081[CompoundID] OR 3120[CompoundID] OR 3017[CompoundID] OR 2969[CompoundID] OR 18827[CompoundID] OR 19518[CompoundID] OR 19658
[CompoundID] OR 38283[CompoundID] OR 2758[CompoundID] OR 10112[CompoundID] OR 10340[CompoundID] OR 712[CompoundID] OR 5794[CompoundID] OR 3347[CompoundID] OR 104150[CompoundID] OR 2912[CompoundID] OR
2450[CompoundID] OR 40326[CompoundID] OR 40585[CompoundID] OR 517055[CompoundID] OR 10913[CompoundID] OR 108242[CompoundID] OR 62097[CompoundID] OR 41679[CompoundID] OR 54680676[CompoundID] OR 62118[C
ompoundID] OR 753[CompoundID] OR 1030[CompoundID] OR 23673837[CompoundID] OR 54678504[CompoundID] OR 11442[CompoundID] OR 11463[CompoundID] OR 22230[CompoundID] OR 440917[CompoundID] OR 6054[CompoundI
D] OR 43234[CompoundID] OR 22629[CompoundID] OR 3039[CompoundID] OR 2735067[CompoundID] OR 6144[CompoundID] OR 702[CompoundID] OR 284[CompoundID] OR 176[CompoundID] OR 91688[CompoundID] OR 22947[Compo
undID] OR 47445[CompoundID] OR 1711973[CompoundID] OR 243[CompoundID] OR 10342051[CompoundID] OR 5281875[CompoundID] OR 3776[CompoundID] OR 6224[CompoundID] OR 104926[CompoundID] OR 8755[CompoundID] O
R 338[CompoundID] OR 123622[CompoundID] OR 23954[CompoundID] OR 6334[CompoundID] OR 2537[CompoundID] OR 24261[CompoundID] OR 23665760[CompoundID] OR 83975[CompoundID] OR 784[CompoundID] OR 24437[Compo
undID] OR 5360315[CompoundID] OR 311[CompoundID] OR 6549[CompoundID] OR 107689[CompoundID] OR 17100[CompoundID] OR 24976875[CompoundID] OR 6654[CompoundID] OR 71245[CompoundID] OR 6442842[CompoundID]
OR 62334[CompoundID] OR 54698175[CompoundID] OR 6328154[CompoundID] OR 24762[CompoundID] OR 440950[CompoundID] OR 7017[CompoundID] OR 5281873[CompoundID] OR 323[CompoundID] OR 5281167[CompoundID] OR 7
175[CompoundID] OR 7292[CompoundID] OR 6335613[CompoundID] OR 7456[CompoundID] OR 7462[CompoundID]

> <resultIndex>
170

> <resultRange>
1-176

> <textQuery>
7628,244,25059,7618,7641,5053,637511,7714,7762,25429,8842,7794,637566,7843,174,7870,86102,7888,7896,1140,8042,8058,8078,8087,8117,8133,115224,8175,8194,445639,4944,8294,93541,8360,8363,656612,125098,3
352,3303913,64805,31200,1712058,31236,31239,31265,31266,31276,6950273,518659,14896,14798,14829,14830,8635,23266,4284,8693,22311,8759,8785,2723810,8857,3893,9936739,516892,5430,9017,15433,107720,955208
1,164825,10275455,16666,9839306,5282227,23676745,32881,91581,39800,33344,15962220,33528,5365075,62829,162381,517202,6433353,2730,5372405,36081,3120,3017,2969,18827,19518,19658,38283,2758,10112,10340,7
12,5794,3347,104150,2912,2450,40326,40585,517055,10913,108242,62097,41679,54680676,62118,753,1030,23673837,54678504,11442,11463,22230,440917,6054,43234,22629,3039,2735067,6144,702,284,176,91688,22947,
47445,1711973,243,10342051,5281875,3776,6224,104926,8755,338,123622,23954,6334,2537,24261,23665760,83975,784,24437,5360315,311,6549,107689,17100,24976875,6654,71245,6442842,62334,54698175,6328154,2476
2,440950,7017,5281873,323,5281167,7175,7292,6335613,7456,7462

$$$$
284
  SciTegic10191915303D

  5  4  0  0  0  0            999 V2000
    1.2840    0.4270    0.0000 O   0  0
   -0.6660   -0.6780    0.0000 O   0  0
    0.0750    0.4270    0.0000 C   0  0
   -0.2300   -1.5390    0.0000 H   0  0
   -0.4630    1.3630    0.0000 H   0  0
  1  3  2  0
  2  3  1  0
  2  4  1  0
  3  5  1  0
M  END
> <Name>
284

> <OBJECTID>
9223372754117656587

> <ActiveAidCount>
2

> <AtomChiralCount>
0

> <AtomChiralDefCount>
0

> <AtomChiralUndefCount>
0

> <BondChiralCount>
0

> <BondChiralDefCount>
0

> <BondChiralUndefCount>
0

> <CID>
284

> <CanonicalSmiles>
C(=O)O

> <Complexity>
10.3

> <CovalentUnitCount>
1

> <CreateDate>
2004/09/16 00:00

> <HeavyAtomCount>
3

> <HydrogenBondAcceptorCount>
2

> <HydrogenBondDonorCount>
1

> <IUPACName>
formic acid

> <InChI>
InChI=1S/CH2O2/c2-1-3/h1H,(H,2,3)

> <InChIKey>
BDAGIHXWWSANSR-UHFFFAOYSA-N

> <IsomericSmiles>
C(=O)O

> <IsotopeAtomCount>
0

> <MeSHHeading>
formic acid

> <MeSHTerm>
formic acid, ammonium (4:1) salt
formic acid, nickel (+2) salt
calcium formate
formic acid, cromium (+3), sodium (4:1:1) salt
formic acid, magnesium salt
formic acid, rubidium salt
formic acid, lead (+2) salt
formic acid, sodium salt
formic acid, zinc salt
sodium formate
ammonium formate
formic acid, cromium (+3) salt
lithium formate
formic acid, ammonium salt
formic acid, potassium salt
formic acid, thallium (+1) salt
formic acid, nickel salt
formic acid, strontium salt
chromic formate
formic acid, copper, ammonium salt
potassium formate
formic acid, lithium salt
cupric formate
formic acid, sodium salt, 13C-labeled
formic acid, copper (+2) salt
formic acid, cadmium salt
formic acid, copper, nickel salt
formic acid, ammonium (2:1) salt
lead formate
formic acid, sodium salt, 14C-labeled
formate
formic acid, copper salt
formic acid, lead salt
magnesium formate
zinc formate
cobalt(II) formate dihydrate
formic acid, aluminum salt
formic acid, cobalt (+2) salt
formic acid, calcium salt
formic acid, cesium salt
formic acid, 14C-labeled
strontium formate
methanoic acid
ammonium tetraformate
nickel formate
cobaltous formate
formic acid
aluminum formate
nickel formate dihydrate

> <MolecularFormula>
CH2O2

> <MolecularWeight>
46.025

> <RotatableBondCount>
0

> <Smiles>
O=CO

> <SourceCategory>
Chemical Vendors
Legacy Depositors
Research and Development
Curation Efforts
Governmental Organizations
NIH Initiatives
Subscription Services
Journal Publishers

> <Synonym>
formic acid
Methanoic acid
64-18-6
Formylic acid
Aminic acid
Bilorin
Hydrogen carboxylic acid
Formisoton
Myrmicyl
Formira
Acide formique
Collo-bueglatt
Collo-didax
Add-F
Ameisensaeure
C1 acid
RCRA waste number U123
Spirit of formic acid
Formic acid (natural)
Mierenzuur [Dutch]
Ameisensaure
Mierenzuur
Kwas metaniowy
Acido formico
Ameisensaeure [German]
Kyselina mravenci
Acide formique [French]
Acido formico [Italian]
Kwas metaniowy [Polish]
Kyselina mravenci [Czech]
HCOOH
FEMA No. 2487
CCRIS 6039
Sybest
EPA Pesticide Chemical Code 214900
AI3-24237
RCRA waste no. U123
UNII-0YIW783RG1
MFCD00003297
UN1779
Methanoic acid monomer
HSDB 1646
HCO2H
EINECS 200-579-1
Wonderbond Hardener M 600L
0YIW783RG1
CHEBI:30751
BDAGIHXWWSANSR-UHFFFAOYSA-N
aminate
formylate
methanoate
Formic acid [UN1779] [Corrosive]
Formic Acid, 88%
0.1% FA in Water
hydrogen carboxylate
0.1% FA in water,
0.1% FA in ACN
0.1% FA in ACN,
Formic acid, 88%, ACS reagent
Formic acid, 97%, ACS reagent
Formicacid
Formicum acidum
0.1% Formic Acid in Water (v/v)
Cal-Ex&trade; II Fixative/Decalcifier
FMT
0.1% Formic Acid in Acetonitrile (v/v)
992-98-3
CH2O2
Oxomethanol
Amasil
forrnic acid
methoic acid
Carboxy Group
Oxocarbinic acid
Metacarbonoic acid
Hydroxy(oxo)methane
TBF
Formic acid anhydrous
Formic acid, natural
H-COOH
FORMIC ACID, ACS
Formic Acid, ACS Grade
ACMC-1B5TQ
bmse000203
FORMIC ACID 88%
EC 200-579-1
Formic acid, 95-97%
AC1Q77UV
Formic acid, LC/MS Grade
Formic acid, 98+%, pure
Formic acid, p.a., 85%
KSC353I1B
Formic Acid (Fragrance Grade)
Formic acid, AR, >=90%
Formic acid, AR, >=98%
Formic acid, LR, >=85%
Formic acid, LR, >=98%
AC1L18W7
CHEMBL116736
Formic acid, purum, >=85%
Formic Acid (Industrial Grade)
DTXSID2024115
CTK2F3410
KS-00000WLQ
Formic acid, 99%, for analysis
BCP23013
Formic acid, >=95%, FCC, FG
Formic acid, technical grade, 85%
ANW-43808
Formic Acid 88% Reagent Grade ACS
FORMIC ACID 88%, ACS GRADE
FORMIC ACID ACS REAGENT GRADE
Formic acid, ACS reagent, >=96%
STL264243
Formic acid [UN1779] [Corrosive]
Formic acid, reagent grade, >=95%
AKOS000269044
Formic acid, ACS reagent, 88-91%
Water with 0.1% Formic Acid (v/v)
DB01942
LS-1540
MCULE-7175589186
RTR-022015
TRA0031519
UN 1779
Formic acid, ACS reagent, >=96.0%
NCGC00248718-01
AN-41866
BP-21436
E236
SC-22724
DB-029851
TR-022015
F0513
F0654
Formic acid, JIS special grade, >=98.0%
Formic acid, Vetec(TM) reagent grade, 95%
FT-0602327
FT-0626533
Y1306
Formic acid with more than 85% acid by mass
C00058
Formic acid, SAJ first grade, 88.0-89.5%
InChI=1/CH2O2/c2-1-3/h1H,(H,2,3
Formic acid solution, BioUltra, 1.0 M in H2O
A834666
Formic acid, p.a., ACS reagent, 98.0-100.0%
I14-8126
J-521387
F1908-0082
Formate standard for IC, 1.000 g/L in H2O, analytical standard
Formic acid, puriss. p.a., ACS reagent, reag. Ph. Eur., >=98%
Formic acid, United States Pharmacopeia (USP) Reference Standard
Formic acid, puriss., meets analytical specifications of DAC, FCC, 98.0-100%
82069-14-5

> <TPSA>
37.3

> <TotalAidCount>
8

> <TotalFormalCharge>
0

> <XLogP>
-0.2

> <database>
PubChem Compound

> <matchingCount>
176

> <primaryID>
284

> <queryTranslation>
7628[CompoundID] OR 244[CompoundID] OR 25059[CompoundID] OR 7618[CompoundID] OR 7641[CompoundID] OR 5053[CompoundID] OR 637511[CompoundID] OR 7714[CompoundID] OR 7762[CompoundID] OR 25429[CompoundID]
OR 8842[CompoundID] OR 7794[CompoundID] OR 637566[CompoundID] OR 7843[CompoundID] OR 174[CompoundID] OR 7870[CompoundID] OR 86102[CompoundID] OR 7888[CompoundID] OR 7896[CompoundID] OR 1140[CompoundID
] OR 8042[CompoundID] OR 8058[CompoundID] OR 8078[CompoundID] OR 8087[CompoundID] OR 8117[CompoundID] OR 8133[CompoundID] OR 115224[CompoundID] OR 8175[CompoundID] OR 8194[CompoundID] OR 445639[Compou
ndID] OR 4944[CompoundID] OR 8294[CompoundID] OR 93541[CompoundID] OR 8360[CompoundID] OR 8363[CompoundID] OR 656612[CompoundID] OR 125098[CompoundID] OR 3352[CompoundID] OR 3303913[CompoundID] OR 648
05[CompoundID] OR 31200[CompoundID] OR 1712058[CompoundID] OR 31236[CompoundID] OR 31239[CompoundID] OR 31265[CompoundID] OR 31266[CompoundID] OR 31276[CompoundID] OR 6950273[CompoundID] OR 518659[Com
poundID] OR 14896[CompoundID] OR 14798[CompoundID] OR 14829[CompoundID] OR 14830[CompoundID] OR 8635[CompoundID] OR 23266[CompoundID] OR 4284[CompoundID] OR 8693[CompoundID] OR 22311[CompoundID] OR 87
59[CompoundID] OR 8785[CompoundID] OR 2723810[CompoundID] OR 8857[CompoundID] OR 3893[CompoundID] OR 9936739[CompoundID] OR 516892[CompoundID] OR 5430[CompoundID] OR 9017[CompoundID] OR 15433[Compound
ID] OR 107720[CompoundID] OR 9552081[CompoundID] OR 164825[CompoundID] OR 10275455[CompoundID] OR 16666[CompoundID] OR 9839306[CompoundID] OR 5282227[CompoundID] OR 23676745[CompoundID] OR 32881[Compo
undID] OR 91581[CompoundID] OR 39800[CompoundID] OR 33344[CompoundID] OR 15962220[CompoundID] OR 33528[CompoundID] OR 5365075[CompoundID] OR 62829[CompoundID] OR 162381[CompoundID] OR 517202[CompoundI
D] OR 6433353[CompoundID] OR 2730[CompoundID] OR 5372405[CompoundID] OR 36081[CompoundID] OR 3120[CompoundID] OR 3017[CompoundID] OR 2969[CompoundID] OR 18827[CompoundID] OR 19518[CompoundID] OR 19658
[CompoundID] OR 38283[CompoundID] OR 2758[CompoundID] OR 10112[CompoundID] OR 10340[CompoundID] OR 712[CompoundID] OR 5794[CompoundID] OR 3347[CompoundID] OR 104150[CompoundID] OR 2912[CompoundID] OR
2450[CompoundID] OR 40326[CompoundID] OR 40585[CompoundID] OR 517055[CompoundID] OR 10913[CompoundID] OR 108242[CompoundID] OR 62097[CompoundID] OR 41679[CompoundID] OR 54680676[CompoundID] OR 62118[C
ompoundID] OR 753[CompoundID] OR 1030[CompoundID] OR 23673837[CompoundID] OR 54678504[CompoundID] OR 11442[CompoundID] OR 11463[CompoundID] OR 22230[CompoundID] OR 440917[CompoundID] OR 6054[CompoundI
D] OR 43234[CompoundID] OR 22629[CompoundID] OR 3039[CompoundID] OR 2735067[CompoundID] OR 6144[CompoundID] OR 702[CompoundID] OR 284[CompoundID] OR 176[CompoundID] OR 91688[CompoundID] OR 22947[Compo
undID] OR 47445[CompoundID] OR 1711973[CompoundID] OR 243[CompoundID] OR 10342051[CompoundID] OR 5281875[CompoundID] OR 3776[CompoundID] OR 6224[CompoundID] OR 104926[CompoundID] OR 8755[CompoundID] O
R 338[CompoundID] OR 123622[CompoundID] OR 23954[CompoundID] OR 6334[CompoundID] OR 2537[CompoundID] OR 24261[CompoundID] OR 23665760[CompoundID] OR 83975[CompoundID] OR 784[CompoundID] OR 24437[Compo
undID] OR 5360315[CompoundID] OR 311[CompoundID] OR 6549[CompoundID] OR 107689[CompoundID] OR 17100[CompoundID] OR 24976875[CompoundID] OR 6654[CompoundID] OR 71245[CompoundID] OR 6442842[CompoundID]
OR 62334[CompoundID] OR 54698175[CompoundID] OR 6328154[CompoundID] OR 24762[CompoundID] OR 440950[CompoundID] OR 7017[CompoundID] OR 5281873[CompoundID] OR 323[CompoundID] OR 5281167[CompoundID] OR 7
175[CompoundID] OR 7292[CompoundID] OR 6335613[CompoundID] OR 7456[CompoundID] OR 7462[CompoundID]

> <resultIndex>
172

> <resultRange>
1-176

> <textQuery>
7628,244,25059,7618,7641,5053,637511,7714,7762,25429,8842,7794,637566,7843,174,7870,86102,7888,7896,1140,8042,8058,8078,8087,8117,8133,115224,8175,8194,445639,4944,8294,93541,8360,8363,656612,125098,3
352,3303913,64805,31200,1712058,31236,31239,31265,31266,31276,6950273,518659,14896,14798,14829,14830,8635,23266,4284,8693,22311,8759,8785,2723810,8857,3893,9936739,516892,5430,9017,15433,107720,955208
1,164825,10275455,16666,9839306,5282227,23676745,32881,91581,39800,33344,15962220,33528,5365075,62829,162381,517202,6433353,2730,5372405,36081,3120,3017,2969,18827,19518,19658,38283,2758,10112,10340,7
12,5794,3347,104150,2912,2450,40326,40585,517055,10913,108242,62097,41679,54680676,62118,753,1030,23673837,54678504,11442,11463,22230,440917,6054,43234,22629,3039,2735067,6144,702,284,176,91688,22947,
47445,1711973,243,10342051,5281875,3776,6224,104926,8755,338,123622,23954,6334,2537,24261,23665760,83975,784,24437,5360315,311,6549,107689,17100,24976875,6654,71245,6442842,62334,54698175,6328154,2476
2,440950,7017,5281873,323,5281167,7175,7292,6335613,7456,7462

$$$$
244
  SciTegic10191915303D

 16 16  0  0  0  0            999 V2000
   -1.0860   -2.0490   -0.1030 C   0  0
   -1.8320   -0.8570   -0.1030 C   0  0
   -1.1740    0.3850   -0.1030 C   0  0
    0.2310    0.4360   -0.1030 C   0  0
    0.9790   -0.7560   -0.1030 C   0  0
    0.3190   -1.9980   -0.1030 C   0  0
    0.9280    1.7500   -0.1030 C   0  0
    1.1470    2.1660    1.2270 O   0  0
   -1.5920   -3.0040   -0.1030 H   0  0
   -2.9120   -0.8960   -0.1030 H   0  0
   -1.7540    1.2970   -0.1030 H   0  0
    2.0570   -0.7230   -0.1030 H   0  0
    0.8930   -2.9120   -0.1030 H   0  0
    1.8970    1.6470   -0.5890 H   0  0
    0.2990    2.4940   -0.5910 H   0  0
    1.6000    3.0220    1.1880 H   0  0
  1  2  2  0
  1  6  1  0
  2  3  1  0
  3  4  2  0
  4  5  1  0
  4  7  1  0
  5  6  2  0
  7  8  1  0
  1  9  1  0
  2 10  1  0
  3 11  1  0
  5 12  1  0
  6 13  1  0
  7 14  1  0
  7 15  1  0
  8 16  1  0
M  END
> <Name>
244

> <OBJECTID>
9223372758412623883

> <ActiveAidCount>
5

> <AtomChiralCount>
0

> <AtomChiralDefCount>
0

> <AtomChiralUndefCount>
0

> <BondChiralCount>
0

> <BondChiralDefCount>
0

> <BondChiralUndefCount>
0

> <CID>
244

> <CanonicalSmiles>
C1=CC=C(C=C1)CO

> <Complexity>
55.4

> <CovalentUnitCount>
1

> <CreateDate>
2004/09/16 00:00

> <HeavyAtomCount>
8

> <HydrogenBondAcceptorCount>
1

> <HydrogenBondDonorCount>
1

> <IUPACName>
phenylmethanol

> <InChI>
InChI=1S/C7H8O/c8-6-7-4-2-1-3-5-7/h1-5,8H,6H2

> <InChIKey>
WVDDGKGOMKODPV-UHFFFAOYSA-N

> <IsomericSmiles>
C1=CC=C(C=C1)CO

> <IsotopeAtomCount>
0

> <MeSHHeading>
Benzyl Alcohol

> <MeSHTerm>
Benzyl Alcohol
Alcohol, Benzyl
Benzenemethanol

> <MolecularFormula>
C7H8O

> <MolecularWeight>
108.14

> <PharmAction>
Chemical Actions and Uses
Anesthetics, Local
Pharmacologic Actions
Physiological Effects of Drugs
Therapeutic Uses
Anesthetics
Central Nervous System Depressants
Peripheral Nervous System Agents
Sensory System Agents
Central Nervous System Agents

> <RotatableBondCount>
1

> <Smiles>
c1ccc(CO)cc1

> <SourceCategory>
Chemical Vendors
Legacy Depositors
Research and Development
Curation Efforts
Governmental Organizations
NIH Initiatives
Subscription Services
Journal Publishers

> <Synonym>
benzyl alcohol
phenylmethanol
benzenemethanol
100-51-6
phenylcarbinol
Benzoyl alcohol
Hydroxytoluene
Benzenecarbinol
Phenylmethyl alcohol
alpha-Toluenol
benzylalcohol
(Hydroxymethyl)benzene
Phenolcarbinol
Benzal alcohol
Alcool benzylique
Benzylicum
Methanol, phenyl-
alpha-hydroxytoluene
Phenylcarbinolum
Phenyl-Methanol
BENZYL-ALCOHOL
hydroxymethylbenzene
Euxyl K 100
Bentalol
benzylic alcohol
Phenyl Methanol
Caswell No. 081F
.alpha.-Toluenol
Benzyl alcohol (natural)
Alcool benzilico [DCIT]
Itch-X
alcoholum benzylicum
NCI-C06111
benzenmethanol
.alpha.-Hydroxytoluene
Benzylalkohol
Aromatic primary alcohol
Alcool benzylique [INN-French]
Benzyl alkohol
Alcohol bencilico [INN-Spanish]
Aromatic alcohol
Methanol benzene
Alcoholum benzylicum [INN-Latin]
Benzene Carbinol
UNII-LKG8494WBH
NSC 8044
phenylmethan-1-ol
aplha-Hydroxytoluene
HSDB 46
FEMA No. 2137
CCRIS 2081
Benzyl alcohol Natural
Benzyl alcohol [USAN:INN:JAN]
WVDDGKGOMKODPV-UHFFFAOYSA-N
EINECS 202-859-9
MFCD00004599
EPA Pesticide Chemical Code 009502
BRN 0878307
TOLUENE,ALPHA-HYDROXY
LKG8494WBH
AI3-01680
CHEBI:17987
NCGC00091865-01
DSSTox_CID_152
DSSTox_RID_75404
Benzyl alcohol, ACS reagent
Benzyl alcohol, for analysis
DSSTox_GSID_20152
Ulesfia
Alcool benzilico
Alcohol bencilico
CAS-100-51-6
Ulesfia (TN)
Benzyl alcohol, 98+%, Extra Dry, AcroSeal(R)
enzylalcohol
Benzalalcohol
Benzalcohol
Benzencarbinol
Bentanol
Benzyl alcohol, specified according to requirements of Ph.Eur.
Alcoolbenzylique
benzene-methanol
Benzyl Alcohole
a-Hydroxytoluene
a-Toluenol
Benzyl alcohol [INN:JAN:NF]
BnOH
OBZ
Sunmorl BK 20
Nat. Benzyl Alcohol
PhCH2OH
Bn-OH
ACMC-1BQPG
Hydroxymethyl polystyrene
(Hydroxymethyl)polystyrene
SCHEMBL147
bmse000407
C6H5CH2OH
CHEMBL720
BENZYL ALCOHOL, ACS
EC 202-859-9
AC1L18SY
WLN: Q1R
Benzyl alcohol polymer-bound
PINAPUR&trade; 9 BA-R
Benzyl alcohol (JP15/NF)
Benzyl alcohol, 99%, pure
4-06-00-02222 (Beilstein Handbook Reference)
Benzyl alcohol, polymer-bound
KSC176G5N
BIDD:ER0248
AC1Q7C20
TB 13G
Benzyl alcohol, LR, >=99%
Jsp000133
DTXSID5020152
PENTADEOTEROBENZYL ALCOHOL
BDBM16418
CTK0H6356
NSC8044
Benzyl alcohol (JP17/NF/INN)
Benzyl Alcohol Reagent ACS Grade
HMS3264B16
Pharmakon1600-01502555
ZINC895302
Benzyl alcohol, analytical standard
Benzyl alcohol, AR, >=99.5%
HY-B0892
NSC-8044
Benzyl alcohol, anhydrous, 99.8%
Tox21_111172
Tox21_202447
Tox21_300044
BBL011938
LS-307
MFCD03792087
NSC760098
s4600
SBB058558
STL163453
Benzyl alcohol, >=99%, FCC, FG
AKOS000119907
AS04466
Benzyl alcohol, natural, >=98%, FG
BENZYL ALCOHOL, U.S.P./N.F.
CCG-213843
DB06770
LS41488
MCULE-6011707909
NSC-760098
RP18893
RTR-033774
NCGC00091865-02
NCGC00091865-03
NCGC00091865-04
NCGC00254154-01
NCGC00259996-01
AJ-24171
AK146334
BC222892
Benzyl alcohol, ACS reagent, >=99.0%
Benzyl alcohol, ReagentPlus(R), >=99%
Benzyl alcohol, USP, 98.0-100.5%
I765
SC-47293
ZB015017
Benzyl alcohol (Synonyms: Benzenemethanol)
Benzyl alcohol on polystyrene, 3.5 mmol/g
TR-033774
B2378
Benzyl alcohol, tested according to Ph.Eur.
E1519
FT-0622812
ST24048908
ST51028320
Benzyl alcohol, p.a., ACS reagent, 99.0%
Benzyl alcohol, SAJ first grade, >=98.5%
3983-EP2269992A1
3983-EP2270004A1
3983-EP2270005A1
3983-EP2270011A1
3983-EP2270505A1
3983-EP2272516A2
3983-EP2272813A2
3983-EP2272817A1
3983-EP2272822A1
3983-EP2272825A2
3983-EP2272841A1
3983-EP2274983A1
3983-EP2275102A1
3983-EP2275401A1
3983-EP2275411A2
3983-EP2275414A1
3983-EP2275425A1
3983-EP2277565A2
3983-EP2277566A2
3983-EP2277567A1
3983-EP2277568A2
3983-EP2277569A2
3983-EP2277570A2
3983-EP2277848A1
3983-EP2277867A2
3983-EP2277876A1
3983-EP2277879A1
3983-EP2279750A1
3983-EP2280001A1
3983-EP2280003A2
3983-EP2280005A1
3983-EP2280008A2
3983-EP2280010A2
3983-EP2280012A2
3983-EP2281823A2
3983-EP2284149A1
3983-EP2284160A1
3983-EP2287155A1
3983-EP2287160A1
3983-EP2287165A2
3983-EP2287166A2
3983-EP2289884A1
3983-EP2289887A2
3983-EP2289888A2
3983-EP2289892A1
3983-EP2289894A2
3983-EP2292227A2
3983-EP2292280A1
3983-EP2292596A2
3983-EP2292611A1
3983-EP2292612A2
3983-EP2292614A1
3983-EP2292615A1
3983-EP2292620A2
3983-EP2295402A2
3983-EP2295406A1
3983-EP2295411A1
3983-EP2295412A1
3983-EP2295413A1
3983-EP2295426A1
3983-EP2295427A1
3983-EP2295437A1
3983-EP2295550A2
3983-EP2298731A1
3983-EP2298734A2
3983-EP2298735A1
3983-EP2298743A1
3983-EP2298744A2
3983-EP2298750A1
3983-EP2298755A1
3983-EP2298768A1
3983-EP2298772A1
3983-EP2298775A1
3983-EP2298783A1
3983-EP2301918A1
3983-EP2301931A1
3983-EP2301936A1
3983-EP2305243A1
3983-EP2305636A1
3983-EP2305640A2
3983-EP2305651A1
3983-EP2305673A1
3983-EP2305676A1
3983-EP2305695A2
3983-EP2305696A2
3983-EP2305697A2
3983-EP2305698A2
3983-EP2305808A1
3983-EP2308812A2
3983-EP2308828A2
3983-EP2308833A2
3983-EP2308839A1
3983-EP2308844A2
3983-EP2308845A2
3983-EP2308846A2
3983-EP2308854A1
3983-EP2308857A1
3983-EP2308858A1
3983-EP2308861A1
3983-EP2308867A2
3983-EP2308870A2
3983-EP2308872A1
3983-EP2308873A1
3983-EP2308875A1
3983-EP2308877A1
3983-EP2311806A2
3983-EP2311815A1
3983-EP2311816A1
3983-EP2311817A1
3983-EP2311823A1
3983-EP2311824A1
3983-EP2311829A1
3983-EP2311831A1
3983-EP2311834A1
3983-EP2311837A1
3983-EP2311842A2
3983-EP2314575A1
3983-EP2314584A1
3983-EP2314585A1
3983-EP2316470A2
3983-EP2316829A1
3983-EP2316831A1
3983-EP2316834A1
3983-EP2316835A1
3983-EP2316836A1
3983-EP2372017A1
3983-EP2374454A1
3983-EP2374783A1
3983-EP2374790A1
3983-EP2374792A1
3983-EP2380568A1
A14564
Benzyl alcohol, SAJ special grade, >=99.0%
Benzyl alcohol, Vetec(TM) reagent grade, 98%
C00556
C03485
D00077
AB01563201_01
A800221
SR-01000872610
I01-4406
J-000153
SR-01000872610-3
F0001-0019
StratoSpheres&trade; PL-HMS (Hydroxymethylstyrene) resin
Z955123784
3762963D-6C2A-4BFF-AD94-3180E51BCA68
Benzyl alcohol, certified reference material, TraceCERT(R)
Benzyl alcohol, European Pharmacopoeia (EP) Reference Standard
Benzyl alcohol, puriss. p.a., ACS reagent, >=99.0% (GC)
Polystyrene cross-linked with divinylbenzene, hydroxymethylated
Polystyrene crosslinked with divinylbenzene, hydroxymethylated
Benzyl alcohol, United States Pharmacopeia (USP) Reference Standard
InChI=1/C7H8O/c8-6-7-4-2-1-3-5-7/h1-5,8H,6H
(Hydroxymethyl)polystyrene, 200-400 mesh, extent of labeling: ~1.7 mmol/g loading
(Hydroxymethyl)polystyrene, 200-500 mesh, extent of labeling: ~1.1 mmol/g loading
Benzyl alcohol, Pharmaceutical Secondary Standard; Certified Reference Material
66072-40-0
Benzyl alcohol, PharmaGrade, USP/NF, Ph Eur, Manufactured under appropriate GMP controls for pharma or biopharmaceutical production.
Benzyl alcohol, polymer-bound, 100-200 mesh, extent of labeling: 0.5-1.0 mmol/g loading, 1 % cross-linked
Benzyl alcohol, polymer-bound, 100-200 mesh, extent of labeling: 1.0-2.0 mmol/g loading, 1 % cross-linked with divinylbenzene
Benzyl alcohol, polymer-bound, 70-90 mesh, extent of labeling: 0.5-1.0 mmol/g loading, 1 % cross-linked with divinylbenzene
Benzyl alcohol, polymer-bound, 70-90 mesh, extent of labeling: 1.0-1.5 mmol/g loading, 1 % cross-linked
Benzyl alcohol, polymer-bound, 70-90 mesh, extent of labeling: 2.0-3.0 mmol loading, 1 % cross-linked
Benzyl alcohol, puriss., meets analytical specification of Ph.??Eur., BP, NF, 99-100.5% (GC)
StratoSpheres(TM) PL-HMS (Hydroxymethylstyrene) resin, 50-100 mesh, extent of labeling: 2.0 mmol loading, 1 % cross-linked

> <TPSA>
20.2

> <TotalAidCount>
610

> <TotalFormalCharge>
0

> <XLogP>
1.1

> <database>
PubChem Compound

> <matchingCount>
176

> <primaryID>
244

> <queryTranslation>
7628[CompoundID] OR 244[CompoundID] OR 25059[CompoundID] OR 7618[CompoundID] OR 7641[CompoundID] OR 5053[CompoundID] OR 637511[CompoundID] OR 7714[CompoundID] OR 7762[CompoundID] OR 25429[CompoundID]
OR 8842[CompoundID] OR 7794[CompoundID] OR 637566[CompoundID] OR 7843[CompoundID] OR 174[CompoundID] OR 7870[CompoundID] OR 86102[CompoundID] OR 7888[CompoundID] OR 7896[CompoundID] OR 1140[CompoundID
] OR 8042[CompoundID] OR 8058[CompoundID] OR 8078[CompoundID] OR 8087[CompoundID] OR 8117[CompoundID] OR 8133[CompoundID] OR 115224[CompoundID] OR 8175[CompoundID] OR 8194[CompoundID] OR 445639[Compou
ndID] OR 4944[CompoundID] OR 8294[CompoundID] OR 93541[CompoundID] OR 8360[CompoundID] OR 8363[CompoundID] OR 656612[CompoundID] OR 125098[CompoundID] OR 3352[CompoundID] OR 3303913[CompoundID] OR 648
05[CompoundID] OR 31200[CompoundID] OR 1712058[CompoundID] OR 31236[CompoundID] OR 31239[CompoundID] OR 31265[CompoundID] OR 31266[CompoundID] OR 31276[CompoundID] OR 6950273[CompoundID] OR 518659[Com
poundID] OR 14896[CompoundID] OR 14798[CompoundID] OR 14829[CompoundID] OR 14830[CompoundID] OR 8635[CompoundID] OR 23266[CompoundID] OR 4284[CompoundID] OR 8693[CompoundID] OR 22311[CompoundID] OR 87
59[CompoundID] OR 8785[CompoundID] OR 2723810[CompoundID] OR 8857[CompoundID] OR 3893[CompoundID] OR 9936739[CompoundID] OR 516892[CompoundID] OR 5430[CompoundID] OR 9017[CompoundID] OR 15433[Compound
ID] OR 107720[CompoundID] OR 9552081[CompoundID] OR 164825[CompoundID] OR 10275455[CompoundID] OR 16666[CompoundID] OR 9839306[CompoundID] OR 5282227[CompoundID] OR 23676745[CompoundID] OR 32881[Compo
undID] OR 91581[CompoundID] OR 39800[CompoundID] OR 33344[CompoundID] OR 15962220[CompoundID] OR 33528[CompoundID] OR 5365075[CompoundID] OR 62829[CompoundID] OR 162381[CompoundID] OR 517202[CompoundI
D] OR 6433353[CompoundID] OR 2730[CompoundID] OR 5372405[CompoundID] OR 36081[CompoundID] OR 3120[CompoundID] OR 3017[CompoundID] OR 2969[CompoundID] OR 18827[CompoundID] OR 19518[CompoundID] OR 19658
[CompoundID] OR 38283[CompoundID] OR 2758[CompoundID] OR 10112[CompoundID] OR 10340[CompoundID] OR 712[CompoundID] OR 5794[CompoundID] OR 3347[CompoundID] OR 104150[CompoundID] OR 2912[CompoundID] OR
2450[CompoundID] OR 40326[CompoundID] OR 40585[CompoundID] OR 517055[CompoundID] OR 10913[CompoundID] OR 108242[CompoundID] OR 62097[CompoundID] OR 41679[CompoundID] OR 54680676[CompoundID] OR 62118[C
ompoundID] OR 753[CompoundID] OR 1030[CompoundID] OR 23673837[CompoundID] OR 54678504[CompoundID] OR 11442[CompoundID] OR 11463[CompoundID] OR 22230[CompoundID] OR 440917[CompoundID] OR 6054[CompoundI
D] OR 43234[CompoundID] OR 22629[CompoundID] OR 3039[CompoundID] OR 2735067[CompoundID] OR 6144[CompoundID] OR 702[CompoundID] OR 284[CompoundID] OR 176[CompoundID] OR 91688[CompoundID] OR 22947[Compo
undID] OR 47445[CompoundID] OR 1711973[CompoundID] OR 243[CompoundID] OR 10342051[CompoundID] OR 5281875[CompoundID] OR 3776[CompoundID] OR 6224[CompoundID] OR 104926[CompoundID] OR 8755[CompoundID] O
R 338[CompoundID] OR 123622[CompoundID] OR 23954[CompoundID] OR 6334[CompoundID] OR 2537[CompoundID] OR 24261[CompoundID] OR 23665760[CompoundID] OR 83975[CompoundID] OR 784[CompoundID] OR 24437[Compo
undID] OR 5360315[CompoundID] OR 311[CompoundID] OR 6549[CompoundID] OR 107689[CompoundID] OR 17100[CompoundID] OR 24976875[CompoundID] OR 6654[CompoundID] OR 71245[CompoundID] OR 6442842[CompoundID]
OR 62334[CompoundID] OR 54698175[CompoundID] OR 6328154[CompoundID] OR 24762[CompoundID] OR 440950[CompoundID] OR 7017[CompoundID] OR 5281873[CompoundID] OR 323[CompoundID] OR 5281167[CompoundID] OR 7
175[CompoundID] OR 7292[CompoundID] OR 6335613[CompoundID] OR 7456[CompoundID] OR 7462[CompoundID]

> <resultIndex>
173

> <resultRange>
1-176

> <textQuery>
7628,244,25059,7618,7641,5053,637511,7714,7762,25429,8842,7794,637566,7843,174,7870,86102,7888,7896,1140,8042,8058,8078,8087,8117,8133,115224,8175,8194,445639,4944,8294,93541,8360,8363,656612,125098,3
352,3303913,64805,31200,1712058,31236,31239,31265,31266,31276,6950273,518659,14896,14798,14829,14830,8635,23266,4284,8693,22311,8759,8785,2723810,8857,3893,9936739,516892,5430,9017,15433,107720,955208
1,164825,10275455,16666,9839306,5282227,23676745,32881,91581,39800,33344,15962220,33528,5365075,62829,162381,517202,6433353,2730,5372405,36081,3120,3017,2969,18827,19518,19658,38283,2758,10112,10340,7
12,5794,3347,104150,2912,2450,40326,40585,517055,10913,108242,62097,41679,54680676,62118,753,1030,23673837,54678504,11442,11463,22230,440917,6054,43234,22629,3039,2735067,6144,702,284,176,91688,22947,
47445,1711973,243,10342051,5281875,3776,6224,104926,8755,338,123622,23954,6334,2537,24261,23665760,83975,784,24437,5360315,311,6549,107689,17100,24976875,6654,71245,6442842,62334,54698175,6328154,2476
2,440950,7017,5281873,323,5281167,7175,7292,6335613,7456,7462

$$$$
243
  SciTegic10191915303D

 15 15  0  0  0  0            999 V2000
    0.2750    2.8870    0.0000 O   0  0
    1.0740    1.8220    0.0000 C   0  0
    2.2810    1.8850    0.0000 O   0  0
    0.3750    0.5020    0.0000 C   0  0
   -1.0310    0.4490    0.0000 C   0  0
   -1.6890   -0.7930    0.0000 C   0  0
   -0.9430   -1.9820    0.0000 C   0  0
    0.4630   -1.9320    0.0000 C   0  0
    1.1210   -0.6890    0.0000 C   0  0
    0.6660    3.7700    0.0000 H   0  0
   -1.6130    1.3590    0.0000 H   0  0
   -2.7680   -0.8320    0.0000 H   0  0
   -1.4470   -2.9380    0.0000 H   0  0
    1.0350   -2.8480    0.0000 H   0  0
    2.2010   -0.6600    0.0000 H   0  0
  1  2  1  0
  2  3  2  0
  2  4  1  0
  4  5  2  0
  4  9  1  0
  5  6  1  0
  6  7  2  0
  7  8  1  0
  8  9  2  0
  1 10  1  0
  5 11  1  0
  6 12  1  0
  7 13  1  0
  8 14  1  0
  9 15  1  0
M  END
> <Name>
243

> <OBJECTID>
9223372762707591179

> <ActiveAidCount>
33

> <AtomChiralCount>
0

> <AtomChiralDefCount>
0

> <AtomChiralUndefCount>
0

> <BondChiralCount>
0

> <BondChiralDefCount>
0

> <BondChiralUndefCount>
0

> <CID>
243

> <CanonicalSmiles>
C1=CC=C(C=C1)C(=O)O

> <Complexity>
104

> <CovalentUnitCount>
1

> <CreateDate>
2004/09/16 00:00

> <HeavyAtomCount>
9

> <HydrogenBondAcceptorCount>
2

> <HydrogenBondDonorCount>
1

> <IUPACName>
benzoic acid

> <InChI>
InChI=1S/C7H6O2/c8-7(9)6-4-2-1-3-5-6/h1-5H,(H,8,9)

> <InChIKey>
WPYMKLBDIGXBTP-UHFFFAOYSA-N

> <IsomericSmiles>
C1=CC=C(C=C1)C(=O)O

> <IsotopeAtomCount>
0

> <MeSHHeading>
Benzoic Acid

> <MeSHTerm>
Potassium Benzoate
Benzoate, Potassium
Acid, Benzoic
Benzoic Acid
Ucephan

> <MolecularFormula>
C7H6O2

> <MolecularWeight>
122.12

> <PharmAction>
Food Ingredients
Chemical Actions and Uses
Therapeutic Uses
Specialty Uses of Chemicals
Antifungal Agents
Food Preservatives
Pharmacologic Actions
Anti-Infective Agents
Food Additives

> <RotatableBondCount>
1

> <Smiles>
OC(c1ccccc1)=O

> <SourceCategory>
Chemical Vendors
Legacy Depositors
Research and Development
Curation Efforts
Governmental Organizations
NIH Initiatives
Subscription Services
Journal Publishers

> <Synonym>
benzoic acid
65-85-0
Dracylic acid
benzenecarboxylic acid
Carboxybenzene
Benzeneformic acid
phenylformic acid
Benzenemethanoic acid
Phenylcarboxylic acid
Retardex
Benzoesaeure GK
Benzoesaeure GV
Retarder BA
Tenn-Plas
Acide benzoique
Salvo liquid
Solvo powder
Benzoesaeure
Flowers of benzoin
Flowers of benjamin
Benzoic acid, tech.
Unisept BZA
HA 1 (acid)
Kyselina benzoova
Benzoic acid (natural)
Benzoate (VAN)
HA 1
Benzoesaeure [German]
Caswell No. 081
Diacylic acid
Oracylic acid
Acide benzoique [French]
Acido benzoico [Italian]
Benzenemethonic acid
Kyselina benzoova [Czech]
NSC 149
E 210
FEMA No. 2131
CCRIS 1893
Diacylate
HSDB 704
UNII-8SKN0B0MIM
AI3-0310
Salvo, liquid
Solvo, powder
Carboxypolystyrene
AI3-03710
Benzoic acid [USAN:JAN]
phenyl formic acid
EPA Pesticide Chemical Code 009101
Benzoic acid Natural
C7H6O2
E210
CHEBI:30746
Aromatic carboxylic acid
EINECS 200-618-2
MFCD00002398
8SKN0B0MIM
WPYMKLBDIGXBTP-UHFFFAOYSA-N
Benzeneformate
Tennplas
Benzenemethanoate
Phenylcarboxylate
Benzenecarboxylate
Retarded BA
DSSTox_CID_143
Phenyl carboxylic acid
DSSTox_RID_75396
DSSTox_GSID_20143
Benzoic acid, 99%, extra pure
Acido benzoico
Benzoic acid, 99.5%, for analysis
Benzoic acid, 99.6%, ACS reagent
CAS-65-85-0
NSC7918
Benzoic acid, tech
Benzoic acid (TN)
Benzoic acid [USP:JAN]
phenylcarboxy
Dracylate
benzoic aicd
benzoic-acid
bezoic acid
Aromatic acid
Salvo powder
benzoic- acid
MP Benzoic acid
Retarder BAX
1gyx
1kqb
Benzoic Acid USP
Sodium benzoic acid
Benzoic Acid,(S)
Natural Benzoic Acid
Benzoic acid,medicinal
Benzoic acid / Benzoate
WLN: QVR
benzene-2-carboxylic acid
BENZOIC ACID, ACS
BENZOIC ACID- D5
Benzoic acid, ACS reagent
bmse000300
CHEMBL541
Epitope ID:139965
EC 200-618-2
AC1L18SV
AC1Q73KP
SCHEMBL1378
ACMC-1BI02
SAMPL4, O1
Benzoic acid (JP17/USP)
KSC352Q8R
MLS002415717
ARONIS27062
BIDD:ER0597
Benzoic acid, AR, >=99%
Benzoic acid, LR, >=99%
NSC149
ZINC1011
DTXSID6020143
ScavengePore&trade; benzoic acid
CTK2F2888
FEMA 2131
Benzoic acid (7CI,8CI,9CI)
Benzoic acid, analytical standard
Benzoic acid, p.a., 99.5%
NSC-149
BDBM197302
HMS2092F18
HMS2267D03
HMS3652B03
Pharmakon1600-01503001
HY-N0216
Tox21_202403
Tox21_300180
ANW-35104
ANW-44013
LS-280
MFCD03456189
NSC758203
s4161
SBB040515
STK301730
Benzoic acid, ReagentPlus(R), 99%
AKOS000119619
AS04617
BS-3752
CCG-213088
DB03793
LS41489
MCULE-4467353796
NE10192
NSC-758203
RL04514
RTR-032704
TRA0015745
TRA0068106
Benzoic acid 100 microg/mL in Acetone
Benzoic acid, >=99.5%, FCC, FG
KS-000048K4
Benzoic acid, ACS reagent, >=99.5%
NCGC00091886-01
NCGC00091886-02
NCGC00091886-03
NCGC00254112-01
NCGC00259952-01
4CN-0999
AJ-07949
AN-22195
AN-23749
Benzoic acid, USP, 99.5-100.5%
BP-30148
K073
SC-46861
SMR001252220
Benzoic acid, tested according to Ph.Eur.
SBI-0206720.P001
AB1002068
Benzoic acid, SAJ first grade, >=99.5%
DB-029471
RT-004576
TR-035735
606-EP2269610A2
606-EP2269988A2
606-EP2270002A1
606-EP2270006A1
606-EP2270008A1
606-EP2270009A1
606-EP2270010A1
606-EP2270011A1
606-EP2270114A1
606-EP2272822A1
606-EP2272827A1
606-EP2272848A1
606-EP2274983A1
606-EP2275105A1
606-EP2275401A1
606-EP2275413A1
606-EP2277507A1
606-EP2277848A1
606-EP2277867A2
606-EP2277870A1
606-EP2277879A1
606-EP2277881A1
606-EP2280003A2
606-EP2280010A2
606-EP2281559A1
606-EP2281563A1
606-EP2281812A1
606-EP2281819A1
606-EP2281823A2
606-EP2284146A2
606-EP2284147A2
606-EP2284149A1
606-EP2284160A1
606-EP2284165A1
606-EP2284169A1
606-EP2284178A2
606-EP2284179A2
606-EP2286795A1
606-EP2287153A1
606-EP2287156A1
606-EP2287161A1
606-EP2287162A1
606-EP2287165A2
606-EP2287166A2
606-EP2289510A1
606-EP2289876A1
606-EP2289883A1
606-EP2289890A1
606-EP2292592A1
606-EP2292597A1
606-EP2292617A1
606-EP2292619A1
606-EP2292620A2
606-EP2292621A1
606-EP2292624A1
606-EP2295401A2
606-EP2295402A2
606-EP2295416A2
606-EP2295418A1
606-EP2295424A1
606-EP2295426A1
606-EP2295427A1
606-EP2295429A1
606-EP2295433A2
606-EP2295438A1
606-EP2295550A2
606-EP2298734A2
606-EP2298735A1
606-EP2298742A1
606-EP2298744A2
606-EP2298748A2
606-EP2298755A1
606-EP2298758A1
606-EP2298759A1
606-EP2298772A1
606-EP2298776A1
606-EP2298783A1
606-EP2301536A1
606-EP2301538A1
606-EP2301911A1
606-EP2301924A1
606-EP2301925A1
606-EP2301929A1
606-EP2301931A1
606-EP2301935A1
606-EP2301937A1
606-EP2301939A1
606-EP2301940A1
606-EP2305250A1
606-EP2305257A1
606-EP2305646A1
606-EP2305651A1
606-EP2305659A1
606-EP2305662A1
606-EP2305664A1
606-EP2305668A1
606-EP2305669A1
606-EP2305672A1
606-EP2305674A1
606-EP2305675A1
606-EP2305679A1
606-EP2305687A1
606-EP2308833A2
606-EP2308839A1
606-EP2308848A1
606-EP2308851A1
606-EP2308854A1
606-EP2308857A1
606-EP2308858A1
606-EP2308861A1
606-EP2308865A1
606-EP2308873A1
606-EP2308875A1
606-EP2308877A1
606-EP2311455A1
606-EP2311801A1
606-EP2311802A1
606-EP2311803A1
606-EP2311807A1
606-EP2311809A1
606-EP2311810A1
606-EP2311811A1
606-EP2311815A1
606-EP2311816A1
606-EP2311817A1
606-EP2311818A1
606-EP2311831A1
606-EP2311842A2
606-EP2314295A1
606-EP2314579A1
606-EP2314584A1
606-EP2314588A1
606-EP2314593A1
606-EP2316457A1
606-EP2316458A1
606-EP2316459A1
606-EP2316825A1
606-EP2316826A1
606-EP2316827A1
606-EP2316828A1
606-EP2316836A1
606-EP2371814A1
606-EP2371831A1
606-EP2372017A1
606-EP2374788A1
606-EP2377845A1
B0062
B2635
CS-0008257
FT-0622705
ST24030107
ST45061539
SW219833-1
Benzoic acid, natural, >=99.5%, FCC, FG
Benzoic acid, SAJ special grade, >=99.5%
Benzoic acid, Vetec(TM) reagent grade, 98%
KS-00000125
Benzoic acid on polystyrene, 1.6-2.1 mmol/g
Benzoic acid, meets USP testing specifications
Benzoic acid, purified by sublimation, >=99%
C00180
C00539
D00038
AB00949635_05
AB00949635_06
A835250
SR-05000001919
Benzoic acid, puriss. p.a., ACS reagent, 99.9%
I01-1943
SR-05000001919-1
0BE368DC-6DE6-4927-AECF-E4BB2968A4A0
Melting point standard 121-123C, analytical standard
Z57127480
F2191-0092
Benzoic acid, NIST(R) SRM(R) 39j, calorimetric standard
Benzoic acid, Standard for quantitative NMR, TraceCERT(R)
Benzoic acid, European Pharmacopoeia (EP) Reference Standard
Benzoic acid, for calorimetrical determination (approx. 26460 J/g)
Benzoic acid, United States Pharmacopeia (USP) Reference Standard
Benzoic acid&#65292;4-fluoro-2,6-dimethyl-&#65292; methyl ester
InChI=1/C7H6O2/c8-7(9)6-4-2-1-3-5-6/h1-5H,(H,8,9
SS Benzoic Acid, 2000 mug/mL in dichloromethane, analytical standard
Benzoic acid solution, 200 mug/mL in methylene chloride, analytical standard
Benzoic Acid Solution, certified reference material, 2000 mug/mL in methylene chloride
Benzoic acid, Pharmaceutical Secondary Standard; Certified Reference Material
Benzoic acid, puriss. p.a., ACS reagent, reag. Ph. Eur., >=99.9% (alkalimetric)
Benzoic acid, certified reference material for titrimetry, certified by BAM according to ISO 17025, >=99.5%
Benzoic acid, meets analytical specification of Ph. Eur., BP, USP, FCC, E210, 99.5-100.5% (alkalimetric)
BOX
Carboxypolystyrene, 100-200 mesh, extent of labeling: 0.5-1.5 mmol/g loading, 1 % cross-linked
Carboxypolystyrene, 100-200 mesh, extent of labeling: 1.6-3.0 mmol/g loading, 1 % cross-linked
Mettler-Toledo Calibration substance ME 18555, Benzoic acid, analytical standard, for the calibration of the thermosystem 900, traceable to primary standards (LGC)
ScavengePore(TM) benzoic acid, macroporous, 40-70 mesh, extent of labeling: 0.5-1.5 mmol per g loading

> <TPSA>
37.3

> <TotalAidCount>
1056

> <TotalFormalCharge>
0

> <XLogP>
1.9

> <database>
PubChem Compound

> <matchingCount>
176

> <primaryID>
243

> <queryTranslation>
7628[CompoundID] OR 244[CompoundID] OR 25059[CompoundID] OR 7618[CompoundID] OR 7641[CompoundID] OR 5053[CompoundID] OR 637511[CompoundID] OR 7714[CompoundID] OR 7762[CompoundID] OR 25429[CompoundID]
OR 8842[CompoundID] OR 7794[CompoundID] OR 637566[CompoundID] OR 7843[CompoundID] OR 174[CompoundID] OR 7870[CompoundID] OR 86102[CompoundID] OR 7888[CompoundID] OR 7896[CompoundID] OR 1140[CompoundID
] OR 8042[CompoundID] OR 8058[CompoundID] OR 8078[CompoundID] OR 8087[CompoundID] OR 8117[CompoundID] OR 8133[CompoundID] OR 115224[CompoundID] OR 8175[CompoundID] OR 8194[CompoundID] OR 445639[Compou
ndID] OR 4944[CompoundID] OR 8294[CompoundID] OR 93541[CompoundID] OR 8360[CompoundID] OR 8363[CompoundID] OR 656612[CompoundID] OR 125098[CompoundID] OR 3352[CompoundID] OR 3303913[CompoundID] OR 648
05[CompoundID] OR 31200[CompoundID] OR 1712058[CompoundID] OR 31236[CompoundID] OR 31239[CompoundID] OR 31265[CompoundID] OR 31266[CompoundID] OR 31276[CompoundID] OR 6950273[CompoundID] OR 518659[Com
poundID] OR 14896[CompoundID] OR 14798[CompoundID] OR 14829[CompoundID] OR 14830[CompoundID] OR 8635[CompoundID] OR 23266[CompoundID] OR 4284[CompoundID] OR 8693[CompoundID] OR 22311[CompoundID] OR 87
59[CompoundID] OR 8785[CompoundID] OR 2723810[CompoundID] OR 8857[CompoundID] OR 3893[CompoundID] OR 9936739[CompoundID] OR 516892[CompoundID] OR 5430[CompoundID] OR 9017[CompoundID] OR 15433[Compound
ID] OR 107720[CompoundID] OR 9552081[CompoundID] OR 164825[CompoundID] OR 10275455[CompoundID] OR 16666[CompoundID] OR 9839306[CompoundID] OR 5282227[CompoundID] OR 23676745[CompoundID] OR 32881[Compo
undID] OR 91581[CompoundID] OR 39800[CompoundID] OR 33344[CompoundID] OR 15962220[CompoundID] OR 33528[CompoundID] OR 5365075[CompoundID] OR 62829[CompoundID] OR 162381[CompoundID] OR 517202[CompoundI
D] OR 6433353[CompoundID] OR 2730[CompoundID] OR 5372405[CompoundID] OR 36081[CompoundID] OR 3120[CompoundID] OR 3017[CompoundID] OR 2969[CompoundID] OR 18827[CompoundID] OR 19518[CompoundID] OR 19658
[CompoundID] OR 38283[CompoundID] OR 2758[CompoundID] OR 10112[CompoundID] OR 10340[CompoundID] OR 712[CompoundID] OR 5794[CompoundID] OR 3347[CompoundID] OR 104150[CompoundID] OR 2912[CompoundID] OR
2450[CompoundID] OR 40326[CompoundID] OR 40585[CompoundID] OR 517055[CompoundID] OR 10913[CompoundID] OR 108242[CompoundID] OR 62097[CompoundID] OR 41679[CompoundID] OR 54680676[CompoundID] OR 62118[C
ompoundID] OR 753[CompoundID] OR 1030[CompoundID] OR 23673837[CompoundID] OR 54678504[CompoundID] OR 11442[CompoundID] OR 11463[CompoundID] OR 22230[CompoundID] OR 440917[CompoundID] OR 6054[CompoundI
D] OR 43234[CompoundID] OR 22629[CompoundID] OR 3039[CompoundID] OR 2735067[CompoundID] OR 6144[CompoundID] OR 702[CompoundID] OR 284[CompoundID] OR 176[CompoundID] OR 91688[CompoundID] OR 22947[Compo
undID] OR 47445[CompoundID] OR 1711973[CompoundID] OR 243[CompoundID] OR 10342051[CompoundID] OR 5281875[CompoundID] OR 3776[CompoundID] OR 6224[CompoundID] OR 104926[CompoundID] OR 8755[CompoundID] O
R 338[CompoundID] OR 123622[CompoundID] OR 23954[CompoundID] OR 6334[CompoundID] OR 2537[CompoundID] OR 24261[CompoundID] OR 23665760[CompoundID] OR 83975[CompoundID] OR 784[CompoundID] OR 24437[Compo
undID] OR 5360315[CompoundID] OR 311[CompoundID] OR 6549[CompoundID] OR 107689[CompoundID] OR 17100[CompoundID] OR 24976875[CompoundID] OR 6654[CompoundID] OR 71245[CompoundID] OR 6442842[CompoundID]
OR 62334[CompoundID] OR 54698175[CompoundID] OR 6328154[CompoundID] OR 24762[CompoundID] OR 440950[CompoundID] OR 7017[CompoundID] OR 5281873[CompoundID] OR 323[CompoundID] OR 5281167[CompoundID] OR 7
175[CompoundID] OR 7292[CompoundID] OR 6335613[CompoundID] OR 7456[CompoundID] OR 7462[CompoundID]

> <resultIndex>
174

> <resultRange>
1-176

> <textQuery>
7628,244,25059,7618,7641,5053,637511,7714,7762,25429,8842,7794,637566,7843,174,7870,86102,7888,7896,1140,8042,8058,8078,8087,8117,8133,115224,8175,8194,445639,4944,8294,93541,8360,8363,656612,125098,3
352,3303913,64805,31200,1712058,31236,31239,31265,31266,31276,6950273,518659,14896,14798,14829,14830,8635,23266,4284,8693,22311,8759,8785,2723810,8857,3893,9936739,516892,5430,9017,15433,107720,955208
1,164825,10275455,16666,9839306,5282227,23676745,32881,91581,39800,33344,15962220,33528,5365075,62829,162381,517202,6433353,2730,5372405,36081,3120,3017,2969,18827,19518,19658,38283,2758,10112,10340,7
12,5794,3347,104150,2912,2450,40326,40585,517055,10913,108242,62097,41679,54680676,62118,753,1030,23673837,54678504,11442,11463,22230,440917,6054,43234,22629,3039,2735067,6144,702,284,176,91688,22947,
47445,1711973,243,10342051,5281875,3776,6224,104926,8755,338,123622,23954,6334,2537,24261,23665760,83975,784,24437,5360315,311,6549,107689,17100,24976875,6654,71245,6442842,62334,54698175,6328154,2476
2,440950,7017,5281873,323,5281167,7175,7292,6335613,7456,7462

$$$$
176
  SciTegic10191915303D

  8  7  0  0  0  0            999 V2000
    1.1740   -0.7230   -0.9840 O   0  0
    1.1170    0.5960    0.8280 O   0  0
    0.5530   -0.1110   -0.1460 C   0  0
   -0.9530   -0.1110   -0.1460 C   0  0
    2.0800    0.6370    0.8850 H   0  0
   -1.3240   -0.6000   -1.0470 H   0  0
   -1.3240   -0.6000    0.7560 H   0  0
   -1.3240    0.9120   -0.1460 H   0  0
  1  3  2  0
  2  3  1  0
  3  4  1  0
  2  5  1  0
  4  6  1  0
  4  7  1  0
  4  8  1  0
M  END
> <Name>
176

> <OBJECTID>
9223372767002558475

> <ActiveAidCount>
15

> <AtomChiralCount>
0

> <AtomChiralDefCount>
0

> <AtomChiralUndefCount>
0

> <BondChiralCount>
0

> <BondChiralDefCount>
0

> <BondChiralUndefCount>
0

> <CID>
176

> <CanonicalSmiles>
CC(=O)O

> <Complexity>
31

> <CovalentUnitCount>
1

> <CreateDate>
2004/09/16 00:00

> <HeavyAtomCount>
4

> <HydrogenBondAcceptorCount>
2

> <HydrogenBondDonorCount>
1

> <IUPACName>
acetic acid

> <InChI>
InChI=1S/C2H4O2/c1-2(3)4/h1H3,(H,3,4)

> <InChIKey>
QTBSBXVTEAMEQO-UHFFFAOYSA-N

> <IsomericSmiles>
CC(=O)O

> <IsotopeAtomCount>
0

> <MeSHHeading>
Acetic Acid

> <MeSHTerm>
Glacial Acetic Acid
Vinegar
Acetic Acid
Acetic Acid Glacial
Glacial, Acetic Acid
Acetic Acid, Glacial

> <MolecularFormula>
C2H4O2

> <MolecularWeight>
60.05

> <PharmAction>
Anti-Bacterial Agents
Indicators and Reagents
Pharmacologic Actions
Therapeutic Uses
Chemical Actions and Uses
Laboratory Chemicals
Anti-Infective Agents
Specialty Uses of Chemicals

> <RotatableBondCount>
0

> <Smiles>
O=C(C)O

> <SourceCategory>
Chemical Vendors
Research and Development
Legacy Depositors
Curation Efforts
Governmental Organizations
NIH Initiatives
Subscription Services
Journal Publishers

> <Synonym>
acetic acid
ethanoic acid
64-19-7
Ethylic acid
Acetic acid, glacial
Acetic acid glacial
Methanecarboxylic acid
Glacial acetic acid
Vinegar acid
Acetasol
Acide acetique
Essigsaeure
Aci-jel
Azijnzuur
Vinegar
Acido acetico
Kyselina octova
Octowy kwas
Pyroligneous acid
HOAc
Azijnzuur [Dutch]
Ethanoic acid monomer
acetyl alcohol
Aceticum acidum
Essigsaeure [German]
ethoic acid
Caswell No. 003
Otic Tridesilon
Octowy kwas [Polish]
Otic Domeboro
Acetic acid (natural)
Acide acetique [French]
Acido acetico [Italian]
Kyselina octova [Czech]
AcOH
Acetic acid, water solutions
FEMA Number 2006
ethanoate
UN2789
UN2790
MeCOOH
HSDB 40
EPA Pesticide Chemical Code 044001
NSC 132953
UNII-Q40Q9N063P
BRN 0506007
FEMA No. 2006
CCRIS 5952
AI3-02394
CH3COOH
CH3-COOH
EINECS 200-580-7
CH3CO2H
MFCD00036152
CHEMBL539
CHEBI:15366
QTBSBXVTEAMEQO-UHFFFAOYSA-N
Carboxymethyl Group
Q40Q9N063P
Ethanoat
Shotgun
Acetic acid, diluted
Acetic acid, of a concentration of more than 10 per cent, by weight, of acetic acid
Acetic acid [JAN]
Orlex
Vosol
WLN: QV1
Acetic acid solution, not less than 50% but more than 80% acid, by mass [UN2790] [Corrosive]
Acetic acid solution, with more than 10% and less than 50% acid, by mass [UN2790] [Corrosive]
Acetic acid, glacial or acetic acid solution, >80% acid, by mass [UN2789] [Corrosive]
Acetic acid, >=99.7%
Acetic acid, aqueous solution
Acetic acid, 99.5%, pure
aceticacid
Acetic acid, 99+%, extra pure
Acetic acid, 99.6%, for analysis
Acetic acid, 99.8%, for analysis
Carboxylic acids, C2-3
Acetic acid, 25%, solution in water
Acetic acid, 50%, solution in water
Acetic acid, 99.8%, for biochemistry
Acetic acid, ACS reagent, >=99.7%
ACY
Acetic acid, 80% vol., solution in water
Acetic acid 0.25% in plastic container
Essigsaure
Ethylate
Volsol
acetic aicd
acetic-acid
Glacial acetate
acetic cid
actic acid
Aceticacidglacial
acetic -acid
acetic acid-
Methanecarboxylate
Acetic acid, glacial [USP:JAN]
Nat. Acetic Acid
Acetasol (TN)
Acetic acid, glacial [USAN:JAN]
Acetic Acid Natural
Vinegar (Salt/Mix)
Acetic acid, propionic acid distillate
MeCO2H
Undiluted Acetic Acid
68475-71-8
3,3'-(1,4-phenylene)dipropiolic acid
methane carboxylic acid
HOOCCH3
PubChem22173
AC1Q2BPJ
Acetic Acid (Recovered)
10.Methanecarboxylic acid
Acetic acid LC/MS Grade
Acetic acid, ACS reagent
DSSTox_CID_4394
Acetic Acid Solution, 1N
bmse000191
bmse000817
bmse000857
Otic Domeboro (Salt/Mix)
EC 200-580-7
AC1L18NC
Acetic acid (JP17/NF)
ACMC-1B1E4
DSSTox_RID_77386
NCIOpen2_000659
NCIOpen2_000682
DSSTox_GSID_24394
Acetic acid, glacial (USP)
Buffer Solution, pH 4.64
4-02-00-00094 (Beilstein Handbook Reference)
Glacial acetic acid (JP17)
KSC491S8N
UN 2790 (Salt/Mix)
INS No. 260
GTPL1058
Acetic Acid Glacial HPLC Grade
Acetic acid solution, for HPLC
Acetic acid, analytical standard
DTXSID5024394
Acetic acid, Environmental Grade
CTK3J1986
KS-00000XBD
Acetic acid, puriss., >=80%
Acetic acid, 99.8%, anhydrous
Acetic acid, AR, >=99.8%
ACETIC ACID, GLACIAL, ACS
Acetic acid, LR, >=99.5%
Acetic Acid, Glacial Reagent ACS
Acetic acid solution, 1 N, 1 M
Acetic acid, extra pure, 99.8%
Acetic acid, 99.5-100.0%
Acetic acid, Glacial, ACS Reagent
Poly[oxy(1-oxo-1,2-ethanediyl)]
ZINC5224164
Acetic acid, puriss., 99-100%
Tox21_301453
Acetic acid, glacial, >=99.85%
ANW-41557
ANW-44008
BDBM50074329
LMFA01010002
NSC132953
NSC406306
STL264240
TCLP extraction fluid 2 (Salt/Mix)
Acetic acid, 1% v/v aqueous solution
Acetic acid, 4% v/v aqueous solution
Acetic acid, 99.7+%, ACS reagent
Acetic acid, Environmental Grade Plus
Acetic acid, for HPLC, >=99.8%
AKOS000268789
Buffer Solution (Acetate), pH 4.01
DB03166
FA(2:0)
LS-1541
LS-2535
MCULE-8295936189
NSC-132953
NSC-406306
RL04447
RTR-021046
Sodium acetate, anhydrous or trihydrate
UN 2789
Acetic acid, >=99.5%, FCC, FG
Acetic acid, natural, >=99.5%, FG
Acetic acid, ReagentPlus(R), >=99%
CAS-64-19-7
TRA-0196378
Acetic acid, USP, 99.5-100.5%
NCGC00255303-01
4843-45-2
Acetic acid, 0.1N Standardized Solution
Acetic acid, 1.0N Standardized Solution
AN-41867
BC253535
C2:0
Acetic acid, SAJ first grade, >=99.0%
Buffer Solution (Acetate), pH 4.0-4.6
TR-021046
TR-021753
612-EP0930075A1
612-EP1441224A2
612-EP2269610A2
612-EP2269977A2
612-EP2269978A2
612-EP2269985A2
612-EP2269986A1
612-EP2269988A2
612-EP2269989A1
612-EP2269990A1
612-EP2269991A2
612-EP2269992A1
612-EP2269993A1
612-EP2269994A1
612-EP2269998A2
612-EP2270001A1
612-EP2270002A1
612-EP2270006A1
612-EP2270008A1
612-EP2270010A1
612-EP2270011A1
612-EP2270012A1
612-EP2270013A1
612-EP2270014A1
612-EP2270015A1
612-EP2270016A1
612-EP2270018A1
612-EP2270113A1
612-EP2270505A1
612-EP2272509A1
612-EP2272516A2
612-EP2272517A1
612-EP2272537A2
612-EP2272813A2
612-EP2272817A1
612-EP2272822A1
612-EP2272825A2
612-EP2272827A1
612-EP2272831A1
612-EP2272832A1
612-EP2272834A1
612-EP2272835A1
612-EP2272841A1
612-EP2272842A1
612-EP2272847A1
612-EP2272848A1
612-EP2272849A1
612-EP2272935A1
612-EP2272972A1
612-EP2272973A1
612-EP2274983A1
612-EP2275102A1
612-EP2275105A1
612-EP2275401A1
612-EP2275403A1
612-EP2275404A1
612-EP2275407A1
612-EP2275409A1
612-EP2275410A1
612-EP2275411A2
612-EP2275412A1
612-EP2275413A1
612-EP2275414A1
612-EP2275417A2
612-EP2275420A1
612-EP2275421A1
612-EP2275469A1
612-EP2277507A1
612-EP2277622A1
612-EP2277848A1
612-EP2277858A1
612-EP2277861A1
612-EP2277862A2
612-EP2277864A1
612-EP2277866A1
612-EP2277867A2
612-EP2277871A1
612-EP2277872A1
612-EP2277874A1
612-EP2277875A2
612-EP2277877A1
612-EP2277878A1
612-EP2277880A1
612-EP2277881A1
612-EP2279750A1
612-EP2280000A1
612-EP2280001A1
612-EP2280003A2
612-EP2280004A1
612-EP2280006A1
612-EP2280008A2
612-EP2280009A1
612-EP2280010A2
612-EP2280012A2
612-EP2280013A1
612-EP2280020A1
612-EP2280021A1
612-EP2281563A1
612-EP2281813A1
612-EP2281815A1
612-EP2281817A1
612-EP2281818A1
612-EP2281819A1
612-EP2281820A2
612-EP2281821A1
612-EP2281823A2
612-EP2281824A1
612-EP2284146A2
612-EP2284147A2
612-EP2284149A1
612-EP2284150A2
612-EP2284151A2
612-EP2284152A2
612-EP2284153A2
612-EP2284155A2
612-EP2284156A2
612-EP2284157A1
612-EP2284159A1
612-EP2284160A1
612-EP2284161A1
612-EP2284162A2
612-EP2284163A2
612-EP2284164A2
612-EP2284167A2
612-EP2284168A2
612-EP2284169A1
612-EP2284170A1
612-EP2284174A1
612-EP2284178A2
612-EP2284179A2
612-EP2284920A1
612-EP2286795A1
612-EP2286811A1
612-EP2287140A2
612-EP2287147A2
612-EP2287148A2
612-EP2287150A2
612-EP2287152A2
612-EP2287153A1
612-EP2287155A1
612-EP2287156A1
612-EP2287160A1
612-EP2287161A1
612-EP2287162A1
612-EP2287163A1
612-EP2287165A2
612-EP2287166A2
612-EP2287167A1
612-EP2287940A1
612-EP2289509A2
612-EP2289510A1
612-EP2289518A1
612-EP2289868A1
612-EP2289876A1
612-EP2289879A1
612-EP2289883A1
612-EP2289885A1
612-EP2289890A1
612-EP2289892A1
612-EP2289893A1
612-EP2289894A2
612-EP2289897A1
612-EP2289965A1
612-EP2292088A1
612-EP2292227A2
612-EP2292228A1
612-EP2292231A1
612-EP2292233A2
612-EP2292234A1
612-EP2292576A2
612-EP2292586A2
612-EP2292589A1
612-EP2292590A2
612-EP2292592A1
612-EP2292593A2
612-EP2292595A1
612-EP2292596A2
612-EP2292597A1
612-EP2292599A1
612-EP2292602A1
612-EP2292603A1
612-EP2292604A2
612-EP2292606A1
612-EP2292610A1
612-EP2292611A1
612-EP2292615A1
612-EP2292617A1
612-EP2292619A1
612-EP2292620A2
612-EP2292621A1
612-EP2292622A1
612-EP2292628A2
612-EP2295053A1
612-EP2295055A2
612-EP2295401A2
612-EP2295402A2
612-EP2295406A1
612-EP2295409A1
612-EP2295411A1
612-EP2295412A1
612-EP2295413A1
612-EP2295414A1
612-EP2295415A1
612-EP2295416A2
612-EP2295417A1
612-EP2295418A1
612-EP2295419A2
612-EP2295421A1
612-EP2295423A1
612-EP2295425A1
612-EP2295426A1
612-EP2295427A1
612-EP2295430A2
612-EP2295431A2
612-EP2295432A1
612-EP2295433A2
612-EP2295434A2
612-EP2295437A1
612-EP2295438A1
612-EP2295439A1
612-EP2295441A2
612-EP2295503A1
612-EP2298312A1
612-EP2298729A1
612-EP2298731A1
612-EP2298734A2
612-EP2298735A1
612-EP2298742A1
612-EP2298743A1
612-EP2298744A2
612-EP2298745A1
612-EP2298746A1
612-EP2298747A1
612-EP2298748A2
612-EP2298750A1
612-EP2298754A1
612-EP2298755A1
612-EP2298756A1
612-EP2298757A2
612-EP2298758A1
612-EP2298759A1
612-EP2298761A1
612-EP2298763A1
612-EP2298766A1
612-EP2298767A1
612-EP2298768A1
612-EP2298770A1
612-EP2298771A2
612-EP2298772A1
612-EP2298775A1
612-EP2298776A1
612-EP2298777A2
612-EP2298778A1
612-EP2298779A1
612-EP2298780A1
612-EP2298828A1
612-EP2301533A1
612-EP2301534A1
612-EP2301536A1
612-EP2301538A1
612-EP2301544A1
612-EP2301912A2
612-EP2301916A2
612-EP2301918A1
612-EP2301922A1
612-EP2301923A1
612-EP2301928A1
612-EP2301929A1
612-EP2301931A1
612-EP2301933A1
612-EP2301934A1
612-EP2301935A1
612-EP2301937A1
612-EP2301938A1
612-EP2301939A1
612-EP2301940A1
612-EP2301983A1
612-EP2302382A2
612-EP2302383A2
612-EP2305219A1
612-EP2305248A1
612-EP2305250A1
612-EP2305254A1
612-EP2305257A1
612-EP2305260A1
612-EP2305627A1
612-EP2305633A1
612-EP2305636A1
612-EP2305637A2
612-EP2305640A2
612-EP2305641A1
612-EP2305643A1
612-EP2305646A1
612-EP2305647A1
612-EP2305648A1
612-EP2305649A1
612-EP2305650A1
612-EP2305651A1
612-EP2305652A2
612-EP2305653A1
612-EP2305654A1
612-EP2305655A2
612-EP2305657A2
612-EP2305659A1
612-EP2305660A1
612-EP2305662A1
612-EP2305663A1
612-EP2305664A1
612-EP2305666A1
612-EP2305667A2
612-EP2305668A1
612-EP2305670A1
612-EP2305671A1
612-EP2305672A1
612-EP2305673A1
612-EP2305674A1
612-EP2305675A1
612-EP2305676A1
612-EP2305678A1
612-EP2305679A1
612-EP2305681A1
612-EP2305682A1
612-EP2305683A1
612-EP2305684A1
612-EP2305687A1
612-EP2305689A1
612-EP2305695A2
612-EP2305696A2
612-EP2305697A2
612-EP2305698A2
612-EP2305769A2
612-EP2305808A1
612-EP2305825A1
612-EP2308479A2
612-EP2308492A1
612-EP2308510A1
612-EP2308562A2
612-EP2308812A2
612-EP2308828A2
612-EP2308831A1
612-EP2308833A2
612-EP2308838A1
612-EP2308839A1
612-EP2308841A2
612-EP2308842A1
612-EP2308847A1
612-EP2308848A1
612-EP2308849A1
612-EP2308850A1
612-EP2308851A1
612-EP2308854A1
612-EP2308855A1
612-EP2308857A1
612-EP2308858A1
612-EP2308861A1
612-EP2308864A1
612-EP2308865A1
612-EP2308867A2
612-EP2308869A1
612-EP2308870A2
612-EP2308872A1
612-EP2308873A1
612-EP2308874A1
612-EP2308875A1
612-EP2308877A1
612-EP2308879A1
612-EP2308880A1
612-EP2308882A1
612-EP2308883A1
612-EP2308960A1
612-EP2309584A1
612-EP2311451A1
612-EP2311453A1
612-EP2311455A1
612-EP2311494A1
612-EP2311796A1
612-EP2311797A1
612-EP2311798A1
612-EP2311799A1
612-EP2311801A1
612-EP2311802A1
612-EP2311803A1
612-EP2311805A1
612-EP2311806A2
612-EP2311807A1
612-EP2311808A1
612-EP2311809A1
612-EP2311810A1
612-EP2311811A1
612-EP2311814A1
612-EP2311816A1
612-EP2311817A1
612-EP2311818A1
612-EP2311820A1
612-EP2311821A1
612-EP2311822A1
612-EP2311823A1
612-EP2311824A1
612-EP2311825A1
612-EP2311826A2
612-EP2311827A1
612-EP2311829A1
612-EP2311830A1
612-EP2311831A1
612-EP2311834A1
612-EP2311835A1
612-EP2311837A1
612-EP2311838A1
612-EP2311839A1
612-EP2311840A1
612-EP2311842A2
612-EP2311850A1
612-EP2314295A1
612-EP2314571A2
612-EP2314574A1
612-EP2314575A1
612-EP2314576A1
612-EP2314577A1
612-EP2314578A1
612-EP2314579A1
612-EP2314581A1
612-EP2314582A1
612-EP2314583A1
612-EP2314585A1
612-EP2314586A1
612-EP2314587A1
612-EP2314588A1
612-EP2314589A1
612-EP2314590A1
612-EP2314593A1
612-EP2315303A1
612-EP2316450A1
612-EP2316452A1
612-EP2316457A1
612-EP2316458A1
612-EP2316459A1
612-EP2316824A1
612-EP2316825A1
612-EP2316826A1
612-EP2316827A1
612-EP2316828A1
612-EP2316829A1
612-EP2316831A1
612-EP2316834A1
612-EP2316835A1
612-EP2316836A1
612-EP2316837A1
612-EP2316905A1
612-EP2316906A2
612-EP2316937A1
612-EP2371797A1
612-EP2371798A1
612-EP2371799A1
612-EP2371800A1
612-EP2371802A1
612-EP2371803A1
612-EP2371804A1
612-EP2371810A1
612-EP2371811A2
612-EP2371814A1
612-EP2372017A1
612-EP2374454A1
612-EP2374526A1
612-EP2374538A1
612-EP2374786A1
612-EP2374895A1
612-EP2377510A1
612-EP2377842A1
612-EP2377843A1
612-EP2380568A1
612-EP2380661A2
612-EP2380867A1
612-EP2380874A2
Acetic acid, >=99.99% trace metals basis
Acetic acid, JIS special grade, >=99.7%
Acetic acid, purified by double-distillation
E 260
E-260
FT-0621735
Y1308
Acetic acid, UV HPLC spectroscopic, 99.9%
8426-EP2269978A2
8426-EP2269985A2
8426-EP2269991A2
8426-EP2270001A1
8426-EP2270006A1
8426-EP2272509A1
8426-EP2272825A2
8426-EP2272848A1
8426-EP2275102A1
8426-EP2275105A1
8426-EP2275403A1
8426-EP2275413A1
8426-EP2275421A1
8426-EP2277848A1
8426-EP2277867A2
8426-EP2277874A1
8426-EP2280003A2
8426-EP2280008A2
8426-EP2281819A1
8426-EP2284150A2
8426-EP2284151A2
8426-EP2284152A2
8426-EP2284153A2
8426-EP2284155A2
8426-EP2284156A2
8426-EP2284157A1
8426-EP2284164A2
8426-EP2286811A1
8426-EP2286812A1
8426-EP2287140A2
8426-EP2287148A2
8426-EP2287150A2
8426-EP2287156A1
8426-EP2289893A1
8426-EP2292589A1
8426-EP2292593A2
8426-EP2292603A1
8426-EP2292604A2
8426-EP2295409A1
8426-EP2295410A1
8426-EP2295412A1
8426-EP2295413A1
8426-EP2295419A2
8426-EP2295428A2
8426-EP2295432A1
8426-EP2295433A2
8426-EP2295437A1
8426-EP2295503A1
8426-EP2298312A1
8426-EP2298743A1
8426-EP2298762A2
8426-EP2298770A1
8426-EP2298775A1
8426-EP2298776A1
8426-EP2298780A1
8426-EP2298783A1
8426-EP2301928A1
8426-EP2301930A1
8426-EP2301933A1
8426-EP2301940A1
8426-EP2305250A1
8426-EP2305637A2
8426-EP2305640A2
8426-EP2305660A1
8426-EP2305682A1
8426-EP2305689A1
8426-EP2305695A2
8426-EP2305696A2
8426-EP2305697A2
8426-EP2305698A2
8426-EP2308840A1
8426-EP2308841A2
8426-EP2308861A1
8426-EP2308867A2
8426-EP2308870A2
8426-EP2308879A1
8426-EP2311806A2
8426-EP2311807A1
8426-EP2311808A1
8426-EP2311818A1
8426-EP2311826A2
8426-EP2311829A1
8426-EP2311831A1
8426-EP2311840A1
8426-EP2311842A2
8426-EP2314295A1
8426-EP2314576A1
8426-EP2314586A1
8426-EP2316824A1
8426-EP2316831A1
8426-EP2316834A1
Acetic acid, Vetec(TM) reagent grade, >=99%
Bifido Selective Supplement B, for microbiology
C00033
D00010
12812-EP2295402A2
12812-EP2316470A2
12812-EP2316831A1
A834671
Acetic acid, >=99.7%, SAJ super special grade
SR-01000944354
I04-9818
SR-01000944354-1
Acetic acid solution, SAJ first grade, 27.0-33.0%
Glacial acetic acid, meets USP testing specifications
I14-60089
InChI=1/C2H4O2/c1-2(3)4/h1H3,(H,3,4
Acetic acid, >=99.7%, suitable for amino acid analysis
Acetic acid, >=99.7%, for titration in non-aqueous medium
Acetic acid, for luminescence, BioUltra, >=99.5% (GC)
UNII-00IBG87IQW component QTBSBXVTEAMEQO-UHFFFAOYSA-N
UNII-2AY78S427U component QTBSBXVTEAMEQO-UHFFFAOYSA-N
UNII-4U092XZF0K component QTBSBXVTEAMEQO-UHFFFAOYSA-N
UNII-726I6TE06G component QTBSBXVTEAMEQO-UHFFFAOYSA-N
UNII-EGV6V52K6N component QTBSBXVTEAMEQO-UHFFFAOYSA-N
UNII-F6R2N217HS component QTBSBXVTEAMEQO-UHFFFAOYSA-N
UNII-IEU56G3J9C component QTBSBXVTEAMEQO-UHFFFAOYSA-N
UNII-LGW5H38VE3 component QTBSBXVTEAMEQO-UHFFFAOYSA-N
UNII-N4G9GAT76C component QTBSBXVTEAMEQO-UHFFFAOYSA-N
UNII-NSF067KU1M component QTBSBXVTEAMEQO-UHFFFAOYSA-N
UNII-T2I226K69M component QTBSBXVTEAMEQO-UHFFFAOYSA-N
Acetic acid, glacial or acetic acid solution, >80% acid, by mass
Acetic acid solution, not less than 50% but more than 80% acid, by mass
Acetic acid solution, with more than 10% and less than 50% acid, by mass
Acetic acid, p.a., ACS reagent, reag. ISO, reag. Ph. Eur., 99.8%
Acetic acid, semiconductor grade MOS PURANAL(TM) (Honeywell 17926)
Glacial acetic acid, United States Pharmacopeia (USP) Reference Standard
Acetic acid, Acculute Standard Volumetric Solution, Final Concentration 1.0N
Acetic acid, glacial or acetic acid solution, >80% acid, by mass [UN2789] [Corrosive]
Acetic acid, puriss. p.a., ACS reagent, reag. ISO, reag. Ph. Eur., >=99.8%
Glacial Acetic Acid, Pharmaceutical Secondary Standard; Certified Reference Material
Acetic acid, glacial, PharmaGrade, USP, JP, Ph Eur, Manufactured under appropriate GMP controls for pharma or biopharmaceutical production.
Acetic acid, puriss., meets analytical specification of Ph. Eur., BP, USP, FCC, 99.8-100.5%

> <TPSA>
37.3

> <TotalAidCount>
339

> <TotalFormalCharge>
0

> <XLogP>
-0.2

> <database>
PubChem Compound

> <matchingCount>
176

> <primaryID>
176

> <queryTranslation>
7628[CompoundID] OR 244[CompoundID] OR 25059[CompoundID] OR 7618[CompoundID] OR 7641[CompoundID] OR 5053[CompoundID] OR 637511[CompoundID] OR 7714[CompoundID] OR 7762[CompoundID] OR 25429[CompoundID]
OR 8842[CompoundID] OR 7794[CompoundID] OR 637566[CompoundID] OR 7843[CompoundID] OR 174[CompoundID] OR 7870[CompoundID] OR 86102[CompoundID] OR 7888[CompoundID] OR 7896[CompoundID] OR 1140[CompoundID
] OR 8042[CompoundID] OR 8058[CompoundID] OR 8078[CompoundID] OR 8087[CompoundID] OR 8117[CompoundID] OR 8133[CompoundID] OR 115224[CompoundID] OR 8175[CompoundID] OR 8194[CompoundID] OR 445639[Compou
ndID] OR 4944[CompoundID] OR 8294[CompoundID] OR 93541[CompoundID] OR 8360[CompoundID] OR 8363[CompoundID] OR 656612[CompoundID] OR 125098[CompoundID] OR 3352[CompoundID] OR 3303913[CompoundID] OR 648
05[CompoundID] OR 31200[CompoundID] OR 1712058[CompoundID] OR 31236[CompoundID] OR 31239[CompoundID] OR 31265[CompoundID] OR 31266[CompoundID] OR 31276[CompoundID] OR 6950273[CompoundID] OR 518659[Com
poundID] OR 14896[CompoundID] OR 14798[CompoundID] OR 14829[CompoundID] OR 14830[CompoundID] OR 8635[CompoundID] OR 23266[CompoundID] OR 4284[CompoundID] OR 8693[CompoundID] OR 22311[CompoundID] OR 87
59[CompoundID] OR 8785[CompoundID] OR 2723810[CompoundID] OR 8857[CompoundID] OR 3893[CompoundID] OR 9936739[CompoundID] OR 516892[CompoundID] OR 5430[CompoundID] OR 9017[CompoundID] OR 15433[Compound
ID] OR 107720[CompoundID] OR 9552081[CompoundID] OR 164825[CompoundID] OR 10275455[CompoundID] OR 16666[CompoundID] OR 9839306[CompoundID] OR 5282227[CompoundID] OR 23676745[CompoundID] OR 32881[Compo
undID] OR 91581[CompoundID] OR 39800[CompoundID] OR 33344[CompoundID] OR 15962220[CompoundID] OR 33528[CompoundID] OR 5365075[CompoundID] OR 62829[CompoundID] OR 162381[CompoundID] OR 517202[CompoundI
D] OR 6433353[CompoundID] OR 2730[CompoundID] OR 5372405[CompoundID] OR 36081[CompoundID] OR 3120[CompoundID] OR 3017[CompoundID] OR 2969[CompoundID] OR 18827[CompoundID] OR 19518[CompoundID] OR 19658
[CompoundID] OR 38283[CompoundID] OR 2758[CompoundID] OR 10112[CompoundID] OR 10340[CompoundID] OR 712[CompoundID] OR 5794[CompoundID] OR 3347[CompoundID] OR 104150[CompoundID] OR 2912[CompoundID] OR
2450[CompoundID] OR 40326[CompoundID] OR 40585[CompoundID] OR 517055[CompoundID] OR 10913[CompoundID] OR 108242[CompoundID] OR 62097[CompoundID] OR 41679[CompoundID] OR 54680676[CompoundID] OR 62118[C
ompoundID] OR 753[CompoundID] OR 1030[CompoundID] OR 23673837[CompoundID] OR 54678504[CompoundID] OR 11442[CompoundID] OR 11463[CompoundID] OR 22230[CompoundID] OR 440917[CompoundID] OR 6054[CompoundI
D] OR 43234[CompoundID] OR 22629[CompoundID] OR 3039[CompoundID] OR 2735067[CompoundID] OR 6144[CompoundID] OR 702[CompoundID] OR 284[CompoundID] OR 176[CompoundID] OR 91688[CompoundID] OR 22947[Compo
undID] OR 47445[CompoundID] OR 1711973[CompoundID] OR 243[CompoundID] OR 10342051[CompoundID] OR 5281875[CompoundID] OR 3776[CompoundID] OR 6224[CompoundID] OR 104926[CompoundID] OR 8755[CompoundID] O
R 338[CompoundID] OR 123622[CompoundID] OR 23954[CompoundID] OR 6334[CompoundID] OR 2537[CompoundID] OR 24261[CompoundID] OR 23665760[CompoundID] OR 83975[CompoundID] OR 784[CompoundID] OR 24437[Compo
undID] OR 5360315[CompoundID] OR 311[CompoundID] OR 6549[CompoundID] OR 107689[CompoundID] OR 17100[CompoundID] OR 24976875[CompoundID] OR 6654[CompoundID] OR 71245[CompoundID] OR 6442842[CompoundID]
OR 62334[CompoundID] OR 54698175[CompoundID] OR 6328154[CompoundID] OR 24762[CompoundID] OR 440950[CompoundID] OR 7017[CompoundID] OR 5281873[CompoundID] OR 323[CompoundID] OR 5281167[CompoundID] OR 7
175[CompoundID] OR 7292[CompoundID] OR 6335613[CompoundID] OR 7456[CompoundID] OR 7462[CompoundID]

> <resultIndex>
175

> <resultRange>
1-176

> <textQuery>
7628,244,25059,7618,7641,5053,637511,7714,7762,25429,8842,7794,637566,7843,174,7870,86102,7888,7896,1140,8042,8058,8078,8087,8117,8133,115224,8175,8194,445639,4944,8294,93541,8360,8363,656612,125098,3
352,3303913,64805,31200,1712058,31236,31239,31265,31266,31276,6950273,518659,14896,14798,14829,14830,8635,23266,4284,8693,22311,8759,8785,2723810,8857,3893,9936739,516892,5430,9017,15433,107720,955208
1,164825,10275455,16666,9839306,5282227,23676745,32881,91581,39800,33344,15962220,33528,5365075,62829,162381,517202,6433353,2730,5372405,36081,3120,3017,2969,18827,19518,19658,38283,2758,10112,10340,7
12,5794,3347,104150,2912,2450,40326,40585,517055,10913,108242,62097,41679,54680676,62118,753,1030,23673837,54678504,11442,11463,22230,440917,6054,43234,22629,3039,2735067,6144,702,284,176,91688,22947,
47445,1711973,243,10342051,5281875,3776,6224,104926,8755,338,123622,23954,6334,2537,24261,23665760,83975,784,24437,5360315,311,6549,107689,17100,24976875,6654,71245,6442842,62334,54698175,6328154,2476
2,440950,7017,5281873,323,5281167,7175,7292,6335613,7456,7462

$$$$
174
  SciTegic10191915303D

 10  9  0  0  0  0            999 V2000
    1.1800   -1.3610    0.0000 O   0  0
    0.7640   -0.0140    0.0000 C   0  0
   -0.7640    0.0140    0.0000 C   0  0
   -1.1800    1.3610    0.0000 O   0  0
    2.1500   -1.3610    0.0000 H   0  0
    1.1590    0.4620    0.8970 H   0  0
    1.1590    0.4620   -0.8970 H   0  0
   -1.1590   -0.4620   -0.8970 H   0  0
   -1.1590   -0.4620    0.8970 H   0  0
   -2.1500    1.3610    0.0000 H   0  0
  1  2  1  0
  2  3  1  0
  3  4  1  0
  1  5  1  0
  2  6  1  0
  2  7  1  0
  3  8  1  0
  3  9  1  0
  4 10  1  0
M  END
> <Name>
174

> <OBJECTID>
9223372771297525771

> <ActiveAidCount>
3

> <AtomChiralCount>
0

> <AtomChiralDefCount>
0

> <AtomChiralUndefCount>
0

> <BondChiralCount>
0

> <BondChiralDefCount>
0

> <BondChiralUndefCount>
0

> <CID>
174

> <CanonicalSmiles>
C(CO)O

> <Complexity>
6

> <CovalentUnitCount>
1

> <CreateDate>
2004/09/16 00:00

> <HeavyAtomCount>
4

> <HydrogenBondAcceptorCount>
2

> <HydrogenBondDonorCount>
2

> <IUPACName>
ethane-1,2-diol

> <InChI>
InChI=1S/C2H6O2/c3-1-2-4/h3-4H,1-2H2

> <InChIKey>
LYCAIKOWRPUZTN-UHFFFAOYSA-N

> <IsomericSmiles>
C(CO)O

> <IsotopeAtomCount>
0

> <MeSHHeading>
Ethylene Glycol

> <MeSHTerm>
1,2-Ethanediol
Monoethylene Glycol
Glycol, Ethylene
2 Hydroxyethanol
2-Hydroxyethanol
Ethylene Glycol
1,2 Ethanediol
Glycol, Monoethylene

> <MolecularFormula>
C2H6O2

> <MolecularWeight>
62.07

> <RotatableBondCount>
1

> <Smiles>
OCCO

> <SourceCategory>
Chemical Vendors
Legacy Depositors
Research and Development
Curation Efforts
Governmental Organizations
NIH Initiatives
Subscription Services
Journal Publishers

> <Synonym>
ETHYLENE GLYCOL
Ethane-1,2-diol
1,2-ethanediol
107-21-1
glycol
monoethylene glycol
1,2-Dihydroxyethane
2-hydroxyethanol
Glycol alcohol
Ethylene alcohol
polyethylene glycol
Macrogol
Fridex
Tescol
Ethylene dihydrate
Norkool
Macrogol 400 BPC
Dowtherm SR 1
ethanediol
Zerex
Ucar 17
Lutrol-9
ethyleneglycol
Aethylenglykol
Polyethylene glycol 200
Glycol, ethylene-
1,2-Ethandiol
Glycols, polyethylene
Caswell No. 441
MFCD00002885
Ethylenglycol
Aethylenglykol [German]
ethylene-glycol
Lutrol
Polyethylene glycol 600
146AR
Polyethylene glycol 1000
UNII-FC72KVT52F
Lutrol 9
Carbowax 20
NSC 93876
Carbowax 300
Carbowax 400
CCRIS 3744
Carbowax 1000
Dowtherm 4000
1,2-ethylene glycol
1,2-dihydroxy ethane
Ethylene glycol polymer
HSDB 5012
NCI-C00920
HOCH2CH2OH
Union Carbide XL 54 Type I De-icing Fluid
PEG 3350
EINECS 203-473-3
M.e.g.
Ethylene glycol homopolymer
Polyethylene Glycol 4000
EPA Pesticide Chemical Code 042203
1,2-Ethanediol homopolymer
FC72KVT52F
AI3-03050
PEG
CHEBI:30742
LYCAIKOWRPUZTN-UHFFFAOYSA-N
PEG 4000
1, 2-Ethanediol
DuPont Zonyl FSO Fluorinated Surfactants
alpha-Hydro-omega-hydroxypoly(oxyethylene)
DSSTox_CID_597
H(OCH2CH2)nOH
Ethylene glycol, technical
Polyethylene oxide
DSSTox_RID_75680
DSSTox_GSID_20597
alpha-Hydro-omega-hydroxypoly(oxy-1,2-ethanediyl)
Glycol, polyethylene
Carbowax
Miralax
Ethylene glycol, 99.5%, for analysis
CAS-107-21-1
Polyethylene Glycols
Ethylene glycol, 99.8%, anhydrous, AcroSeal(R)
Polyethylene glycol 3350
Athylenglykol
Aquaffin
Badimol
Modopeg
Nosilen
Nycoline
ehtylene glycol
ethylen glycol
etylene glycol
Carbowax Sentry
Pluracol E
Polyaethylenglykol
Aquacide III
Ilexan E
Bradsyn PEG
ethylene alcohol
Merpol OJ
Polyaethylenglykole
MEG 100
Alkox SR
Oxide Wax AN
Oxyethylene polymer
Poly-G
Solbanon (TN)
1,2-ethane diol
1,2-ethane-diol
ethane-1.2-diol
GXT
Hypodicarbonous acid
1,2-ethyleneglycol
ArgoGel&trade;-OH
ethan-1,2-diol
Carbowax 100
Carbowax 200
Carbowax 600
Macrogol 400
Polyox wsr-N 60
Mono Ethylene Glycol
Carbowax 1350
Carbowax 1500
Carbowax 1540
Carbowax 3350
Carbowax 4500
Carbowax 4600
1,2-ethylene-glycol
Breox 20M
Lutrol E (TN)
Ethylene oxide polymer
Gafanol E 200
Pluriol E 200
Carbowax 14000
Carbowax 20000
Carbowax 25000
Emkapol 4200
Alcox E 30
Alkox E 45
Alkox E 60
Alkox E 75
Alkox R 15
Antarox E 4000
Atpeg 300
Breox 550
Breox PEG 300
Alkox E 100
Alkox E 130
Alkox E 160
Alkox E 240
Alkox R 150
Alkox R 400
Breox 2000
Breox 4000
Poly-G600
Macrogol 400 (TN)
Methoxypolyethylene glycol
Polyethylene oxide (NF)
Alkox R 1000
Polyethylene glycol (NF)
ACMC-1AS4X
Sentry polyox WSR (TN)
Macrogol 1500 (TN)
Macrogol 4000 (TN)
Macrogol 6000 (TN)
EC 203-473-3
Polyethylene Glycol 6000
AC1Q7D7G
Ethoxylated 1,2-ethanediol
Macrogol ointment (JP17)
WLN: Q2Q
Glycol, polyethylene(300)
HO(CH2)2OH
M.E.G
NCIOpen2_001979
NCIOpen2_002019
NCIOpen2_002100
Macrogol 400 (JP17)
Polyethylene Glycol 300 NF
CCRIS 979
Ethylene glycol 5 M solution
KSC176Q3T
MLS002454404
Polyethylene glycol, diglycidyl bisphenol A polymer
BIDD:ER0283
FisherFresh&trade; Concentrate
Macrogol 1500 (JP17)
Macrogol 4000 (JP17)
Macrogol 6000 (JP17)
AC1L18N6
CAFO 154
CHEMBL457299
LS-8
PEG 6000DS
DTXSID4027862
DTXSID8020597
Ethylene glycol, AR, >=99%
Ethylene glycol, LR, >=99%
Macrogol 20000 (JP17)
CHEBI:46793
CTK0H6839
HSDB 5159
KS-00000VSQ
BDH 301
Poly(oxy-1,2-ethanediyl), .alpha.-hydro-.omega.-hydroxy-
WSR-301
HMS2267F07
Poly(ethylene glycol) methyl ether
Polyethylene glycol 3350 (USP)
WT931
Ethylene glycol, p.a., 99.5%
1,2-ETHANEDIOL (GLYCOL)
NSC32853
NSC32854
NSC57859
NSC93876
PEG 3600
poly (ethylene glycol) methyl ether
ZINC5224354
Ethylene glycol, analytical standard
Tox21_202038
Tox21_300637
ANW-15497
Ethane-1,2-diol (Ethylene Glycol)
Ethylene glycol, anhydrous, 99.8%
HM 500
NSC-32853
NSC-32854
NSC-57859
NSC-93876
NSC152324
NSC152325
NSC155081
Polyethylene Glycol 8000, NF FCC
STL264188
1,2-OO paragraph signthorn (1/4)
M.W range 3,000-3,700
AKOS000119039
alpha,omega-hydroxypoly(ethylene oxide)
DD 3002
LS-1078
MCULE-6366313128
NSC 152324
NSC-152324
NSC-152325
NSC-155081
RP18262
RTR-001403
61266-70-4 2-Hydroxymethyloxethane
TRA-0183678
DuPont Zonyl FSE Fluorinated Surfactants
Ethylene glycol, Spectrophotometric grade
NCGC00091510-01
NCGC00091510-02
NCGC00091510-03
NCGC00254292-01
NCGC00259587-01
AK116144
AN-22472
BP-13454
M430
Oxirane, 2,2'-((1-methylethylidene)bis(4,1-phenyleneoxymethylene))bis-, polymer with alpha-hydro-omega-hydroxypoly(oxy-1,2-ethanediyl)
polyethylene glycol (m w 200-9,500)
SC-47188
SMR001262244
Dihydrocarveol, (-)-, mixture of isomers
ETHYLENE GLYCOL HIGH PURITY GRD 1L
Ethylene glycol, ReagentPlus(R), >=99%
DuPont Zonyl FSE Fluorinated Surfactants
Pluracol E 400, E 600, E 1450
TR-001403
242-EP2269996A1
242-EP2272826A1
242-EP2272846A1
242-EP2272849A1
242-EP2275413A1
242-EP2275420A1
242-EP2277867A2
242-EP2280003A2
242-EP2281810A1
242-EP2281812A1
242-EP2284165A1
242-EP2286812A1
242-EP2287156A1
242-EP2289897A1
242-EP2292597A1
242-EP2292608A1
242-EP2295399A2
242-EP2295434A2
242-EP2295438A1
242-EP2298076A1
242-EP2298077A1
242-EP2298750A1
242-EP2298770A1
242-EP2301353A1
242-EP2305031A1
242-EP2305034A1
242-EP2305035A1
242-EP2305663A1
242-EP2305673A1
242-EP2305683A1
242-EP2308510A1
242-EP2308857A1
242-EP2308866A1
242-EP2308877A1
242-EP2311804A2
242-EP2311807A1
242-EP2311834A1
242-EP2311839A1
242-EP2314574A1
242-EP2314589A1
242-EP2316837A1
242-EP2371797A1
242-EP2371798A1
242-EP2371800A1
242-EP2371804A1
242-EP2371809A1
242-EP2374895A1
242-EP2377845A1
242-EP2380873A1
378-EP2269977A2
378-EP2270010A1
378-EP2270017A1
378-EP2270101A1
378-EP2270113A1
378-EP2272813A2
378-EP2272817A1
378-EP2272832A1
378-EP2272849A1
378-EP2272935A1
378-EP2272972A1
378-EP2272973A1
378-EP2274983A1
378-EP2275395A2
378-EP2275404A1
378-EP2275417A2
378-EP2275425A1
378-EP2275469A1
378-EP2277507A1
378-EP2277622A1
378-EP2277858A1
378-EP2277866A1
378-EP2277867A2
378-EP2277872A1
378-EP2277875A2
378-EP2280003A2
378-EP2281563A1
378-EP2281810A1
378-EP2281818A1
378-EP2281821A1
378-EP2281824A1
378-EP2284157A1
378-EP2284159A1
378-EP2284162A2
378-EP2284163A2
378-EP2284165A1
378-EP2284169A1
378-EP2286795A1
378-EP2286811A1
378-EP2287161A1
378-EP2287162A1
378-EP2287940A1
378-EP2289965A1
378-EP2292592A1
378-EP2292597A1
378-EP2292606A1
378-EP2292621A1
378-EP2295055A2
378-EP2295399A2
378-EP2295416A2
378-EP2295438A1
378-EP2295439A1
378-EP2298735A1
378-EP2298743A1
378-EP2298747A1
378-EP2298748A2
378-EP2298760A1
378-EP2298767A1
378-EP2298768A1
378-EP2298770A1
378-EP2298772A1
378-EP2298778A1
378-EP2298828A1
378-EP2301924A1
378-EP2301933A1
378-EP2301941A1
378-EP2301983A1
378-EP2305625A1
378-EP2305627A1
378-EP2305642A2
378-EP2305651A1
378-EP2305658A1
378-EP2305667A2
378-EP2305808A1
378-EP2308839A1
378-EP2308843A1
378-EP2308854A1
378-EP2308857A1
378-EP2308858A1
378-EP2308861A1
378-EP2308865A1
378-EP2308926A1
378-EP2309564A1
378-EP2311453A1
378-EP2311815A1
378-EP2311816A1
378-EP2311817A1
378-EP2311818A1
378-EP2311827A1
378-EP2314558A1
378-EP2314576A1
378-EP2314577A1
378-EP2314587A1
378-EP2315303A1
378-EP2316831A1
378-EP2371799A1
378-EP2371809A1
378-EP2371811A2
378-EP2372017A1
378-EP2374783A1
378-EP2374786A1
378-EP2374790A1
378-EP2374895A1
378-EP2377841A1
378-EP2380873A1
E0105
Ethylene glycol 1000 microg/mL in Methanol
Ethylene glycol, puriss., >=99.5% (GC)
FT-0626292
FT-0692978
Ethylene glycol, BioUltra, >=99.5% (GC)
Ethylene glycol, SAJ first grade, >=99.0%
C01380
C15588
D03370
D06418
D06419
D06420
D06421
D06422
D06423
Ethylene glycol, JIS special grade, >=99.5%
27283-EP2270007A1
27283-EP2270505A1
27283-EP2272817A1
27283-EP2272822A1
27283-EP2279750A1
27283-EP2280000A1
27283-EP2281823A2
27283-EP2284160A1
27283-EP2284169A1
27283-EP2287160A1
27283-EP2287161A1
27283-EP2287162A1
27283-EP2292612A2
27283-EP2305673A1
27283-EP2308510A1
27283-EP2308562A2
27283-EP2308877A1
27283-EP2311832A1
27283-EP2311833A1
27283-EP2311834A1
27283-EP2314575A1
27283-EP2371811A2
27283-EP2374790A1
27283-EP2377849A2
89779-EP2289483A1
89779-EP2295422A2
89779-EP2305033A1
Ethanol, 2,2'-(oxybis(2,1-ethanediyloxy)bis-
Ethylene glycol, anhydrous, ZerO2(TM), 99.8%
Ethylene glycol, Vetec(TM) reagent grade, 98%
Ethylene glycol, spectrophotometric grade, >=99%
InChI=1/C2H6O2/c3-1-2-4/h3-4H,1-2H
J-001731
I14-17827
Poly(oxy-1,2-ethanediyl), alpha-hydro-omega-hydroxy-
Poly(oxy-1,2-ethanediyl, alpha-hydro-omega-hydroxy-
F0001-0142
004143F9-240E-472F-9D5A-B1B13BBA2A18
Ethylene glycol, United States Pharmacopeia (USP) Reference Standard
Ethylene glycol, Pharmaceutical Secondary Standard; Certified Reference Material
1173022-10-0
EGL
Ethylene glycol solution, NMR reference standard, 80% in DMSO-d6 (99.9 atom % D), NMR tube size 3 mm x 8 in.
Ethylene glycol solution, NMR reference standard, 80% in DMSO-d6 (99.9 atom % D), NMR tube size 5 mm x 8 in.
Residual Solvent Class 2 - Ethylene Glycol, United States Pharmacopeia (USP) Reference Standard

> <TPSA>
40.5

> <TotalAidCount>
872

> <TotalFormalCharge>
0

> <XLogP>
-1.4

> <database>
PubChem Compound

> <matchingCount>
176

> <primaryID>
174

> <queryTranslation>
7628[CompoundID] OR 244[CompoundID] OR 25059[CompoundID] OR 7618[CompoundID] OR 7641[CompoundID] OR 5053[CompoundID] OR 637511[CompoundID] OR 7714[CompoundID] OR 7762[CompoundID] OR 25429[CompoundID]
OR 8842[CompoundID] OR 7794[CompoundID] OR 637566[CompoundID] OR 7843[CompoundID] OR 174[CompoundID] OR 7870[CompoundID] OR 86102[CompoundID] OR 7888[CompoundID] OR 7896[CompoundID] OR 1140[CompoundID
] OR 8042[CompoundID] OR 8058[CompoundID] OR 8078[CompoundID] OR 8087[CompoundID] OR 8117[CompoundID] OR 8133[CompoundID] OR 115224[CompoundID] OR 8175[CompoundID] OR 8194[CompoundID] OR 445639[Compou
ndID] OR 4944[CompoundID] OR 8294[CompoundID] OR 93541[CompoundID] OR 8360[CompoundID] OR 8363[CompoundID] OR 656612[CompoundID] OR 125098[CompoundID] OR 3352[CompoundID] OR 3303913[CompoundID] OR 648
05[CompoundID] OR 31200[CompoundID] OR 1712058[CompoundID] OR 31236[CompoundID] OR 31239[CompoundID] OR 31265[CompoundID] OR 31266[CompoundID] OR 31276[CompoundID] OR 6950273[CompoundID] OR 518659[Com
poundID] OR 14896[CompoundID] OR 14798[CompoundID] OR 14829[CompoundID] OR 14830[CompoundID] OR 8635[CompoundID] OR 23266[CompoundID] OR 4284[CompoundID] OR 8693[CompoundID] OR 22311[CompoundID] OR 87
59[CompoundID] OR 8785[CompoundID] OR 2723810[CompoundID] OR 8857[CompoundID] OR 3893[CompoundID] OR 9936739[CompoundID] OR 516892[CompoundID] OR 5430[CompoundID] OR 9017[CompoundID] OR 15433[Compound
ID] OR 107720[CompoundID] OR 9552081[CompoundID] OR 164825[CompoundID] OR 10275455[CompoundID] OR 16666[CompoundID] OR 9839306[CompoundID] OR 5282227[CompoundID] OR 23676745[CompoundID] OR 32881[Compo
undID] OR 91581[CompoundID] OR 39800[CompoundID] OR 33344[CompoundID] OR 15962220[CompoundID] OR 33528[CompoundID] OR 5365075[CompoundID] OR 62829[CompoundID] OR 162381[CompoundID] OR 517202[CompoundI
D] OR 6433353[CompoundID] OR 2730[CompoundID] OR 5372405[CompoundID] OR 36081[CompoundID] OR 3120[CompoundID] OR 3017[CompoundID] OR 2969[CompoundID] OR 18827[CompoundID] OR 19518[CompoundID] OR 19658
[CompoundID] OR 38283[CompoundID] OR 2758[CompoundID] OR 10112[CompoundID] OR 10340[CompoundID] OR 712[CompoundID] OR 5794[CompoundID] OR 3347[CompoundID] OR 104150[CompoundID] OR 2912[CompoundID] OR
2450[CompoundID] OR 40326[CompoundID] OR 40585[CompoundID] OR 517055[CompoundID] OR 10913[CompoundID] OR 108242[CompoundID] OR 62097[CompoundID] OR 41679[CompoundID] OR 54680676[CompoundID] OR 62118[C
ompoundID] OR 753[CompoundID] OR 1030[CompoundID] OR 23673837[CompoundID] OR 54678504[CompoundID] OR 11442[CompoundID] OR 11463[CompoundID] OR 22230[CompoundID] OR 440917[CompoundID] OR 6054[CompoundI
D] OR 43234[CompoundID] OR 22629[CompoundID] OR 3039[CompoundID] OR 2735067[CompoundID] OR 6144[CompoundID] OR 702[CompoundID] OR 284[CompoundID] OR 176[CompoundID] OR 91688[CompoundID] OR 22947[Compo
undID] OR 47445[CompoundID] OR 1711973[CompoundID] OR 243[CompoundID] OR 10342051[CompoundID] OR 5281875[CompoundID] OR 3776[CompoundID] OR 6224[CompoundID] OR 104926[CompoundID] OR 8755[CompoundID] O
R 338[CompoundID] OR 123622[CompoundID] OR 23954[CompoundID] OR 6334[CompoundID] OR 2537[CompoundID] OR 24261[CompoundID] OR 23665760[CompoundID] OR 83975[CompoundID] OR 784[CompoundID] OR 24437[Compo
undID] OR 5360315[CompoundID] OR 311[CompoundID] OR 6549[CompoundID] OR 107689[CompoundID] OR 17100[CompoundID] OR 24976875[CompoundID] OR 6654[CompoundID] OR 71245[CompoundID] OR 6442842[CompoundID]
OR 62334[CompoundID] OR 54698175[CompoundID] OR 6328154[CompoundID] OR 24762[CompoundID] OR 440950[CompoundID] OR 7017[CompoundID] OR 5281873[CompoundID] OR 323[CompoundID] OR 5281167[CompoundID] OR 7
175[CompoundID] OR 7292[CompoundID] OR 6335613[CompoundID] OR 7456[CompoundID] OR 7462[CompoundID]

> <resultIndex>
176

> <resultRange>
1-176

> <textQuery>
7628,244,25059,7618,7641,5053,637511,7714,7762,25429,8842,7794,637566,7843,174,7870,86102,7888,7896,1140,8042,8058,8078,8087,8117,8133,115224,8175,8194,445639,4944,8294,93541,8360,8363,656612,125098,3
352,3303913,64805,31200,1712058,31236,31239,31265,31266,31276,6950273,518659,14896,14798,14829,14830,8635,23266,4284,8693,22311,8759,8785,2723810,8857,3893,9936739,516892,5430,9017,15433,107720,955208
1,164825,10275455,16666,9839306,5282227,23676745,32881,91581,39800,33344,15962220,33528,5365075,62829,162381,517202,6433353,2730,5372405,36081,3120,3017,2969,18827,19518,19658,38283,2758,10112,10340,7
12,5794,3347,104150,2912,2450,40326,40585,517055,10913,108242,62097,41679,54680676,62118,753,1030,23673837,54678504,11442,11463,22230,440917,6054,43234,22629,3039,2735067,6144,702,284,176,91688,22947,
47445,1711973,243,10342051,5281875,3776,6224,104926,8755,338,123622,23954,6334,2537,24261,23665760,83975,784,24437,5360315,311,6549,107689,17100,24976875,6654,71245,6442842,62334,54698175,6328154,2476
2,440950,7017,5281873,323,5281167,7175,7292,6335613,7456,7462

$$$$
3559
  SciTegic10191915303D

 49 51  0  0  0  0            999 V2000
    8.9340    0.8600   -1.5480 Cl  0  0
   -8.8960   -0.3340    3.8360 F   0  0
    2.7210   -0.6010   -3.1690 O   0  0
   -2.6020   -0.8650    3.2320 O   0  0
    0.3060    0.3360   -0.7260 N   0  0
    2.9830    0.0330   -1.9300 C   0  0
    2.2260    1.3790   -1.9030 C   0  0
    2.4680   -0.8820   -0.7970 C   0  0
    0.6970    1.1950   -1.8510 C   0  0
    0.9310   -0.9910   -0.7770 C   0  0
   -1.1450    0.2360   -0.6140 C   0  0
    4.4560    0.2380   -1.8340 C   0  0
   -1.5450   -0.1900    0.7990 C   0  0
    5.3100   -0.8650   -1.6550 C   0  0
    4.9940    1.5340   -1.9230 C   0  0
   -3.0440   -0.0410    1.0580 C   0  0
    6.6990   -0.6730   -1.5660 C   0  0
    6.3830    1.7280   -1.8320 C   0  0
   -3.4350   -0.4860    2.4420 C   0  0
    7.2390    0.6240   -1.6550 C   0  0
   -4.8810   -0.4460    2.8110 C   0  0
   -5.2920   -0.8400    4.0980 C   0  0
   -5.8370   -0.0130    1.8730 C   0  0
   -6.6530   -0.8020    4.4450 C   0  0
   -7.1980    0.0240    2.2210 C   0  0
   -7.6070   -0.3700    3.5070 C   0  0
    2.4890    1.9940   -2.7650 H   0  0
    2.5300    1.9510   -1.0240 H   0  0
    2.7940   -0.4870    0.1680 H   0  0
    2.9030   -1.8810   -0.8720 H   0  0
    0.2160    2.1690   -1.7510 H   0  0
    0.3380    0.7590   -2.7840 H   0  0
    0.5800   -1.5260   -1.6610 H   0  0
    0.6190   -1.5740    0.0910 H   0  0
   -1.5180   -0.4750   -1.3510 H   0  0
   -1.5960    1.1950   -0.8690 H   0  0
   -0.9690    0.3570    1.5440 H   0  0
   -1.2190   -1.2110    1.0000 H   0  0
    3.1420   -1.4740   -3.1380 H   0  0
    4.9030   -1.8630   -1.5860 H   0  0
    4.3430    2.3850   -2.0600 H   0  0
   -3.5410   -0.6650    0.3140 H   0  0
   -3.3630    0.9890    0.8960 H   0  0
    7.3440   -1.5300   -1.4300 H   0  0
    6.7820    2.7300   -1.9000 H   0  0
   -4.5660   -1.1740    4.8250 H   0  0
   -5.5320    0.2920    0.8820 H   0  0
   -6.9630   -1.1060    5.4350 H   0  0
   -7.9270    0.3570    1.4970 H   0  0
  1 20  1  0
  2 26  1  0
  3  6  1  0
  3 39  1  0
  4 19  2  0
  5  9  1  0
  5 10  1  0
  5 11  1  0
  6  7  1  0
  6  8  1  0
  6 12  1  0
  7  9  1  0
  7 27  1  0
  7 28  1  0
  8 10  1  0
  8 29  1  0
  8 30  1  0
  9 31  1  0
  9 32  1  0
 10 33  1  0
 10 34  1  0
 11 13  1  0
 11 35  1  0
 11 36  1  0
 12 14  2  0
 12 15  1  0
 13 16  1  0
 13 37  1  0
 13 38  1  0
 14 17  1  0
 14 40  1  0
 15 18  2  0
 15 41  1  0
 16 19  1  0
 16 42  1  0
 16 43  1  0
 17 20  2  0
 17 44  1  0
 18 20  1  0
 18 45  1  0
 19 21  1  0
 21 22  2  0
 21 23  1  0
 22 24  1  0
 22 46  1  0
 23 25  2  0
 23 47  1  0
 24 26  2  0
 24 48  1  0
 25 26  1  0
 25 49  1  0
M  END
> <Name>
3559

> <OBJECTID>
9223372775592493067

> <Clean Energy>
28.2140007019043

> <PUBCHEM_ATOM_DEF_STEREO_COUNT>
0

> <PUBCHEM_ATOM_UDEF_STEREO_COUNT>
0

> <PUBCHEM_BONDANNOTATIONS>
12  14  8
12  15  8
14  17  8
15  18  8
17  20  8
18  20  8
21  22  8
21  23  8
22  24  8
23  25  8
24  26  8
25  26  8

> <PUBCHEM_BOND_DEF_STEREO_COUNT>
0

> <PUBCHEM_BOND_UDEF_STEREO_COUNT>
0

> <PUBCHEM_CACTVS_COMPLEXITY>
451

> <PUBCHEM_CACTVS_HBOND_ACCEPTOR>
4

> <PUBCHEM_CACTVS_HBOND_DONOR>
1

> <PUBCHEM_CACTVS_ROTATABLE_BOND>
6

> <PUBCHEM_CACTVS_SUBSKEYS>
AAADceB6MQAEAAAAAAAAAAAAAAAAAAAAAAA8YIAAAAAAAAABQAAAHwIACAAADEbBmCwwAIMAAgCIAqBSAAACAAAkBQAIiAEICsgIJjKBlxCEcQAmwAGImYecyOCOhAAAAAAAAAAIAAAAAAAAAAAAAAAAAA==

> <PUBCHEM_CACTVS_TAUTO_COUNT>
-1

> <PUBCHEM_CACTVS_TPSA>
40.5

> <PUBCHEM_COMPONENT_COUNT>
1

> <PUBCHEM_COMPOUND_CANONICALIZED>
1

> <PUBCHEM_COMPOUND_CID>
3559

> <PUBCHEM_COORDINATE_TYPE>
1
5
255

> <PUBCHEM_EXACT_MASS>
375.140014648438

> <PUBCHEM_HEAVY_ATOM_COUNT>
26

> <PUBCHEM_ISOTOPIC_ATOM_COUNT>
0

> <PUBCHEM_IUPAC_CAS_NAME>
4-[4-(4-chlorophenyl)-4-hydroxy-1-piperidinyl]-1-(4-fluorophenyl)-1-butanone

> <PUBCHEM_IUPAC_INCHI>
InChI=1S/C21H23ClFNO2/c22-18-7-5-17(6-8-18)21(26)11-14-24(15-12-21)13-1-2-20(25)16-3-9-19(23)10-4-16/h3-10,26H,1-2,11-15H2

> <PUBCHEM_IUPAC_INCHIKEY>
LNEPOXFFQSENCJ-UHFFFAOYSA-N

> <PUBCHEM_IUPAC_NAME>
4-[4-(4-chlorophenyl)-4-hydroxypiperidin-1-yl]-1-(4-fluorophenyl)butan-1-one

> <PUBCHEM_IUPAC_NAME_MARKUP>
4-[4-(4-chlorophenyl)-4-hydroxypiperidin-1-yl]-1-(4-fluorophenyl)butan-1-one

> <PUBCHEM_IUPAC_OPENEYE_NAME>
4-[4-(4-chlorophenyl)-4-hydroxy-1-piperidyl]-1-(4-fluorophenyl)butan-1-one

> <PUBCHEM_IUPAC_SYSTEMATIC_NAME>
4-[4-(4-chlorophenyl)-4-oxidanyl-piperidin-1-yl]-1-(4-fluorophenyl)butan-1-one

> <PUBCHEM_IUPAC_TRADITIONAL_NAME>
4-[4-(4-chlorophenyl)-4-hydroxy-piperidino]-1-(4-fluorophenyl)butan-1-one

> <PUBCHEM_MOLECULAR_FORMULA>
C21H23ClFNO2

> <PUBCHEM_MOLECULAR_WEIGHT>
375.899993896484

> <PUBCHEM_MONOISOTOPIC_WEIGHT>
375.140014648438

> <PUBCHEM_OPENEYE_CAN_SMILES>
C1CN(CCC1(C2=CC=C(C=C2)Cl)O)CCCC(=O)C3=CC=C(C=C3)F

> <PUBCHEM_OPENEYE_ISO_SMILES>
C1CN(CCC1(C2=CC=C(C=C2)Cl)O)CCCC(=O)C3=CC=C(C=C3)F

> <PUBCHEM_TOTAL_CHARGE>
0

> <PUBCHEM_XLOGP3>
3.20000004768372

$$$$
363901613
  SciTegic10191915303D

  5  4  0  0  0  0            999 V2000
    0.8242   -1.2259    0.0000 Al  0  0
   -1.0838    0.9846    0.0007 Al  0  0
   -0.8438   -0.7370   -0.0014 O   0  0
    2.3015   -1.6597   -0.0005 O   0  0
   -1.2971    2.5094    0.0008 O   0  0
  1  3  1  0
  1  4  2  0
  2  3  1  0
  2  5  2  0
M  END
> <Name>
363901613

> <OBJECTID>
9223372779887460363

> <PUBCHEM_ATOM_DEF_STEREO_COUNT>
0

> <PUBCHEM_ATOM_UDEF_STEREO_COUNT>
0

> <PUBCHEM_BOND_DEF_STEREO_COUNT>
0

> <PUBCHEM_BOND_UDEF_STEREO_COUNT>
0

> <PUBCHEM_CACTVS_TAUTO_COUNT>
1

> <PUBCHEM_CID_ASSOCIATIONS>
517273  1
962  2
14769  2
24261  2

> <PUBCHEM_COMPONENT_COUNT>
3

> <PUBCHEM_COMPOUND_ID_TYPE>
0

> <PUBCHEM_COORDINATE_TYPE>
1
5
255

> <PUBCHEM_EXT_DATASOURCE_NAME>
22070

> <PUBCHEM_EXT_DATASOURCE_REGID>
1302-78-9

> <PUBCHEM_EXT_DATASOURCE_URL>
https://toxnet.nlm.nih.gov/newtoxnet/ccris.htm

> <PUBCHEM_EXT_SUBSTANCE_URL>
http://toxnet.nlm.nih.gov/cgi-bin/sis/search2/r?dbs+ccris:@term+@DOCNO+3663

> <PUBCHEM_GENERIC_REGISTRY_NAME>
1302-78-9

> <PUBCHEM_HEAVY_ATOM_COUNT>
9

> <PUBCHEM_ISOTOPIC_ATOM_COUNT>
0

> <PUBCHEM_SUBSTANCE_COMMENT>
Substance Name:
BENTONITE
CAS Registry Number:
1302-78-9
Data Type:
Mutagenicity
CCRIS Record Number:
3663
Last Revision Date:
19921215
Update History:
Complete Update on 12/15/1992, 1 field added/edited/deleted.
Complete Update on 07/13/1992, 6 fields added/edited/deleted.

> <PUBCHEM_SUBSTANCE_ID>
363901613

> <PUBCHEM_SUBSTANCE_SYNONYM>
1302-78-9
BENTONITE

> <PUBCHEM_SUBSTANCE_VERSION>
1

> <PUBCHEM_TOTAL_CHARGE>
0

> <PUBCHEM_XREF_EXT_ID>
1302-78-9

$$$$
7929
  SciTegic10191915303D

 18 18  0  0  0  0            999 V2000
   -0.1760    1.2090    0.0020 C   0  0
   -0.0860   -1.2270    0.0020 C   0  0
   -0.8340   -0.0330    0.0020 C   0  0
    1.2310    1.2600    0.0020 C   0  0
    1.3180   -1.1740    0.0020 C   0  0
    1.9770    0.0680    0.0020 C   0  0
   -0.9650    2.4690    0.0020 C   0  0
   -0.7810   -2.5390    0.0020 C   0  0
   -1.9140   -0.0720    0.0020 H   0  0
    1.7400    2.2110    0.0020 H   0  0
    1.8970   -2.0860    0.0020 H   0  0
    3.0550    0.1070    0.0020 H   0  0
   -0.3590    3.3770    0.0020 H   0  0
   -1.6050    2.4960    0.8830 H   0  0
   -1.6050    2.4960   -0.8760 H   0  0
   -0.0580   -3.3340   -0.1750 H   0  0
   -1.3220   -2.6640    0.9420 H   0  0
   -1.5120   -2.5640   -0.8060 H   0  0
  1  3  2  0
  1  4  1  0
  1  7  1  0
  2  3  1  0
  2  5  2  0
  2  8  1  0
  3  9  1  0
  4  6  2  0
  4 10  1  0
  5  6  1  0
  5 11  1  0
  6 12  1  0
  7 13  1  0
  7 14  1  0
  7 15  1  0
  8 16  1  0
  8 17  1  0
  8 18  1  0
M  END
> <Name>
7929

> <OBJECTID>
9223372784182427659

> <PUBCHEM_ATOM_DEF_STEREO_COUNT>
0

> <PUBCHEM_ATOM_UDEF_STEREO_COUNT>
0

> <PUBCHEM_BONDANNOTATIONS>
1  3  8
1  4  8
2  3  8
2  5  8
4  6  8
5  6  8

> <PUBCHEM_BOND_DEF_STEREO_COUNT>
0

> <PUBCHEM_BOND_UDEF_STEREO_COUNT>
0

> <PUBCHEM_CACTVS_COMPLEXITY>
58.4

> <PUBCHEM_CACTVS_HBOND_ACCEPTOR>
0

> <PUBCHEM_CACTVS_HBOND_DONOR>
0

> <PUBCHEM_CACTVS_ROTATABLE_BOND>
0

> <PUBCHEM_CACTVS_SUBSKEYS>
AAADccBwAAAAAAAAAAAAAAAAAAAAAAAAAAAwAAAAAAAAAAABAAAAGAAAAAAADACAGAAyAIAAAACAAiBCAAACAAAgAAAIiAAAAIgIICKAERCAIAAggAAIiAcAgEAOAAACAAAAAAAAAAQAAAAAAAAAAAAAAA==

> <PUBCHEM_CACTVS_TAUTO_COUNT>
-1

> <PUBCHEM_CACTVS_TPSA>
0

> <PUBCHEM_COMPONENT_COUNT>
1

> <PUBCHEM_COMPOUND_CANONICALIZED>
1

> <PUBCHEM_COMPOUND_CID>
7929

> <PUBCHEM_COORDINATE_TYPE>
1
5
255

> <PUBCHEM_EXACT_MASS>
106.07825

> <PUBCHEM_HEAVY_ATOM_COUNT>
8

> <PUBCHEM_ISOTOPIC_ATOM_COUNT>
0

> <PUBCHEM_IUPAC_CAS_NAME>
1,3-xylene

> <PUBCHEM_IUPAC_INCHI>
InChI=1S/C8H10/c1-7-4-3-5-8(2)6-7/h3-6H,1-2H3

> <PUBCHEM_IUPAC_INCHIKEY>
IVSZLXZYQVIEFR-UHFFFAOYSA-N

> <PUBCHEM_IUPAC_NAME>
1,3-xylene

> <PUBCHEM_IUPAC_NAME_MARKUP>
1,3-xylene

> <PUBCHEM_IUPAC_OPENEYE_NAME>
m-xylene

> <PUBCHEM_IUPAC_SYSTEMATIC_NAME>
1,3-dimethylbenzene

> <PUBCHEM_IUPAC_TRADITIONAL_NAME>
m-xylene

> <PUBCHEM_MOLECULAR_FORMULA>
C8H10

> <PUBCHEM_MOLECULAR_WEIGHT>
106.16

> <PUBCHEM_MONOISOTOPIC_WEIGHT>
106.07825

> <PUBCHEM_OPENEYE_CAN_SMILES>
CC1=CC(=CC=C1)C

> <PUBCHEM_OPENEYE_ISO_SMILES>
CC1=CC(=CC=C1)C

> <PUBCHEM_TOTAL_CHARGE>
0

> <PUBCHEM_XLOGP3>
3.2

$$$$
375105875
  SciTegic10191915303D

 11 12  0  0  0  0            999 V2000
   -0.2270   -1.0210    0.8580 O   0  0
    1.1540   -0.9650   -0.8690 O   0  0
    1.3260    0.5490    0.9790 O   0  0
   -1.0310    1.0350    0.7910 O   0  0
   -1.2030   -0.4690   -1.0470 O   0  0
    3.1450    0.3730   -0.5990 O   0  5
   -3.1450    0.8090   -0.3690 O   0  5
    0.0180    0.2230    1.0590 B   0  0
   -0.1210   -0.9900   -0.4220 B   0  0
    1.9180   -0.0200   -0.1640 B   0  0
   -1.8340    0.4770   -0.2180 B   0  0
  1  8  1  0
  1  9  1  0
  2  9  1  0
  2 10  1  0
  3  8  1  0
  3 10  1  0
  4  8  1  0
  4 11  1  0
  5  9  1  0
  5 11  1  0
  6 10  1  0
  7 11  1  0
M  CHG  2   6  -1   7  -1
M  END
> <Name>
375105875

> <OBJECTID>
9223372788477394955

> <PUBCHEM_CID_ASSOCIATIONS>
10219853  1
516845  2
5360545  2

> <PUBCHEM_COMPOUND_ID_TYPE>
0

> <PUBCHEM_EXT_DATASOURCE_NAME>
20980

> <PUBCHEM_EXT_DATASOURCE_REGID>
3B3-056976

> <PUBCHEM_EXT_DATASOURCE_URL>
http://www.3bsc.com

> <PUBCHEM_EXT_SUBSTANCE_URL>
http://www.3bsc.com/index/pro_info.php?id=95511

> <PUBCHEM_GENERIC_REGISTRY_NAME>
1330-43-4

> <PUBCHEM_SUBSTANCE_ID>
375105875

> <PUBCHEM_SUBSTANCE_SYNONYM>
1330-43-4
Disodium tetraborate

> <PUBCHEM_SUBSTANCE_VERSION>
1

> <PUBCHEM_TOTAL_CHARGE>
0

> <PUBCHEM_XREF_EXT_ID>
3B3-056976

$$$$
19658
  SciTegic10191915303D

 12 12  0  0  0  0            999 V2000
    0.2810   -3.0200   -0.1740 S   0  0
    2.4380   -1.0490   -0.1350 O   0  5
    1.2460   -0.5280   -0.0680 N   0  0
    0.1330   -1.3500   -0.0780 C   0  0
    1.1130    0.8460    0.0080 C   0  0
   -1.2070   -0.7170    0.0000 C   0  0
   -0.0980    1.4390    0.0800 C   0  0
   -1.3260    0.6230    0.0780 C   0  0
    1.9840    1.4860    0.0140 H   0  0
   -2.0940   -1.3360   -0.0040 H   0  0
   -0.1720    2.5160    0.1390 H   0  0
   -2.2990    1.0900    0.1390 H   0  0
  1  4  2  0
  2  3  1  0
  3  4  1  0
  3  5  1  0
  4  6  1  0
  5  7  2  0
  5  9  1  0
  6  8  2  0
  6 10  1  0
  7  8  1  0
  7 11  1  0
  8 12  1  0
M  CHG  1   2  -1
M  END
> <Name>
19658

> <OBJECTID>
9223372792772362251

> <PUBCHEM_ATOM_DEF_STEREO_COUNT>
0

> <PUBCHEM_ATOM_UDEF_STEREO_COUNT>
0

> <PUBCHEM_BONDANNOTATIONS>
4  5  8
4  6  8
5  7  8
6  8  8
7  9  8
8  9  8

> <PUBCHEM_BOND_DEF_STEREO_COUNT>
0

> <PUBCHEM_BOND_UDEF_STEREO_COUNT>
0

> <PUBCHEM_CACTVS_COMPLEXITY>
162

> <PUBCHEM_CACTVS_HBOND_ACCEPTOR>
2

> <PUBCHEM_CACTVS_HBOND_DONOR>
0

> <PUBCHEM_CACTVS_ROTATABLE_BOND>
0

> <PUBCHEM_CACTVS_SUBSKEYS>
AAADcYBiICBAAAAAAAAAAAAAAAAAAAAAAAAgAAAAAAAAAAAAAAAAHAQEAAAACADBQAQAAAIQAACEACBGQACAAAAAAggoCAAIAAAIAAAAAQAAAAAAAAAAgAAAAAAAAAAAAAAAAAAAAAAAAAAAAAAAAAAAAA==

> <PUBCHEM_CACTVS_TAUTO_COUNT>
-1

> <PUBCHEM_CACTVS_TPSA>
58.4

> <PUBCHEM_COMPONENT_COUNT>
2

> <PUBCHEM_COMPOUND_CANONICALIZED>
1

> <PUBCHEM_COMPOUND_CID>
19658

> <PUBCHEM_COORDINATE_TYPE>
1
5
255

> <PUBCHEM_EXACT_MASS>
148.991129

> <PUBCHEM_HEAVY_ATOM_COUNT>
9

> <PUBCHEM_ISOTOPIC_ATOM_COUNT>
0

> <PUBCHEM_IUPAC_CAS_NAME>
sodium;1-oxido-2-pyridinethione

> <PUBCHEM_IUPAC_INCHI>
InChI=1S/C5H4NOS.Na/c7-6-4-2-1-3-5(6)8;/h1-4H;/q-1;+1

> <PUBCHEM_IUPAC_INCHIKEY>
XNRNJIIJLOFJEK-UHFFFAOYSA-N

> <PUBCHEM_IUPAC_NAME>
sodium;1-oxidopyridine-2-thione

> <PUBCHEM_IUPAC_NAME_MARKUP>
sodium;1-oxidopyridine-2-thione

> <PUBCHEM_IUPAC_OPENEYE_NAME>
sodium;1-oxidopyridine-2-thione

> <PUBCHEM_IUPAC_SYSTEMATIC_NAME>
sodium;1-oxidanidylpyridine-2-thione

> <PUBCHEM_IUPAC_TRADITIONAL_NAME>
sodium;1-oxidopyridine-2-thione

> <PUBCHEM_MOLECULAR_FORMULA>
C5H4NNaOS

> <PUBCHEM_MOLECULAR_WEIGHT>
149.15

> <PUBCHEM_MONOISOTOPIC_WEIGHT>
148.991129

> <PUBCHEM_OPENEYE_CAN_SMILES>
C1=CC(=S)N(C=C1)[O-].[Na+]

> <PUBCHEM_OPENEYE_ISO_SMILES>
C1=CC(=S)N(C=C1)[O-].[Na+]

> <PUBCHEM_TOTAL_CHARGE>
0

$$$$
241152144
  SciTegic10191915303D

 55 56  0  0  0  0            999 V2000
    0.1950    0.5720   -0.5510 O   0  0
   -0.6840    2.4080   -1.4900 O   0  0
    3.7050    3.2130    4.4450 O   0  0
    5.1840    2.0780    3.2010 O   0  0
    0.6500   -3.5220   -2.3750 O   0  0
   -0.7580    2.6050    1.8930 C   0  0
    0.2030    2.6110    0.7150 C   0  0  1  0  0  0
    0.5470    1.8300    1.9650 C   0  0  3  0  0  0
   -0.1430    1.8590   -0.5590 C   0  0
    1.6760    2.3140    2.8560 C   0  0
   -0.8890    3.8980    2.6910 C   0  0
   -2.0470    1.7970    1.7850 C   0  0
    2.9430    1.9590    2.5840 C   0  0
    0.0040   -0.0430   -1.8160 C   0  0  3  0  0  0
   -1.3320   -0.7460   -1.8570 C   0  0
    4.0470    2.4200    3.4360 C   0  0
   -1.1930   -2.0610   -2.0640 C   0  0
    1.0470   -1.1620   -2.0350 C   0  0
    0.2130   -2.4080   -2.1860 C   0  0
    3.2030    1.0780    1.3910 C   0  0
   -2.3300   -3.0450   -2.1620 C   0  0
   -2.6430   -0.0240   -1.6820 C   0  0
   -2.2420   -3.8280   -3.4430 C   0  0
    4.8240    3.6050    5.2270 C   0  0
   -2.5700   -5.1310   -3.4240 C   0  0
   -2.5000   -5.9400   -4.6470 C   0  0
   -2.8280   -7.2420   -4.6270 C   0  0
    0.7600    3.5330    0.5470 H   0  0
    0.4690    0.7440    1.8990 H   0  0
    1.3950    2.9410    3.6880 H   0  0
   -0.0230    4.5470    2.5610 H   0  0
   -0.9860    3.6850    3.7560 H   0  0
   -1.7740    4.4550    2.3810 H   0  0
   -2.4900    1.6070    2.7640 H   0  0
   -1.8590    0.8340    1.3130 H   0  0
   -2.7850    2.3260    1.1820 H   0  0
    0.0590    0.7150   -2.5860 H   0  0
    1.7250   -1.2600   -1.2010 H   0  0
    1.6310   -0.9920   -2.9300 H   0  0
    4.2520    0.8050    1.2730 H   0  0
    2.8850    1.5860    0.4810 H   0  0
    2.6270    0.1560    1.4790 H   0  0
   -3.2830   -2.5180   -2.1150 H   0  0
   -2.3050   -3.7250   -1.3110 H   0  0
   -3.4120   -0.6290   -1.2030 H   0  0
   -3.0240    0.2950   -2.6520 H   0  0
   -2.4940    0.8690   -1.0740 H   0  0
   -1.9340   -3.4440   -4.4040 H   0  0
    4.4860    4.3280    5.9690 H   0  0
    5.3030    2.7050    5.6130 H   0  0
    5.5390    4.1070    4.5740 H   0  0
   -2.8970   -5.6580   -2.5390 H   0  0
   -2.1930   -5.5550   -5.6070 H   0  0
   -2.8150   -7.9280   -5.4590 H   0  0
   -3.1370   -7.6250   -3.6660 H   0  0
  1  9  1  0
  1 14  1  0
  2  9  2  0
  3 16  1  0
  3 24  1  0
  4 16  2  0
  5 19  2  0
  6  7  1  0
  6  8  1  0
  6 11  1  0
  6 12  1  0
  7  8  1  0
  7  9  1  0
  8 10  1  0
 10 13  2  0
 13 16  1  0
 13 20  1  0
 14 15  1  0
 14 18  1  0
 15 17  2  0
 15 22  1  0
 17 19  1  0
 17 21  1  0
 18 19  1  0
 21 23  1  0
 23 25  2  0
 25 26  1  0
 26 27  2  0
  7 28  1  0
  8 29  1  0
 10 30  1  0
 11 31  1  0
 11 32  1  0
 11 33  1  0
 12 34  1  0
 12 35  1  0
 12 36  1  0
 14 37  1  0
 18 38  1  0
 18 39  1  0
 20 40  1  0
 20 41  1  0
 20 42  1  0
 21 43  1  0
 21 44  1  0
 22 45  1  0
 22 46  1  0
 22 47  1  0
 23 48  1  0
 24 49  1  0
 24 50  1  0
 24 51  1  0
 25 52  1  0
 26 53  1  0
 27 54  1  0
 27 55  1  0
M  END
> <Name>
241152144

> <OBJECTID>
9223372797067329547

> <PUBCHEM_BONDANNOTATIONS>
10  15  5
13  16  5
25  2  6

> <PUBCHEM_CID_ASSOCIATIONS>
71310221  1
71310222  2
71310223  2

> <PUBCHEM_COMPOUND_ID_TYPE>
0

> <PUBCHEM_COORDINATE_TYPE>
1
3

> <PUBCHEM_EXT_DATASOURCE_NAME>
814

> <PUBCHEM_EXT_DATASOURCE_REGID>
99161248

> <PUBCHEM_EXT_DATASOURCE_URL>
http://chemmol.com/

> <PUBCHEM_EXT_SUBSTANCE_URL>
http://www.chemmol.com/chemmol/99161248.html

> <PUBCHEM_GENERIC_REGISTRY_NAME>
8003-34-7

> <PUBCHEM_SUBSTANCE_ID>
241152144

> <PUBCHEM_SUBSTANCE_SYNONYM>
8003-34-7
PYRETHRINS

> <PUBCHEM_SUBSTANCE_VERSION>
1

> <PUBCHEM_TOTAL_CHARGE>
0

> <PUBCHEM_XREF_EXT_ID>
99161248

$$$$
126679024
  SciTegic10191915303D

 12 12  0  0  0  0            999 V2000
   -0.6893   -1.2183   -0.0007 C   0  0
   -1.3968   -0.0895   -0.0010 C   0  0
    0.7755   -1.1651    0.0003 C   0  0
   -0.7105    1.2056   -0.0003 C   0  0
    1.3993    0.0121    0.0009 C   0  0
    0.6209    1.2540    0.0006 C   0  0
   -2.4861   -0.1291   -0.0017 H   0  0
    1.3544   -2.0887    0.0006 H   0  0
   -1.2894    2.1292   -0.0006 H   0  0
    2.4886    0.0516    0.0017 H   0  0
    1.1312    2.2171    0.0011 H   0  0
   -1.1996   -2.1815   -0.0011 H   0  0
  1  2  2  0
  1  3  1  0
  1 12  1  0
  2  4  1  0
  2  7  1  0
  3  5  2  0
  3  8  1  0
  4  6  2  0
  4  9  1  0
  5  6  1  0
  5 10  1  0
  6 11  1  0
M  END
> <Name>
126679024

> <OBJECTID>
9223372801362296843

> <PUBCHEM_CID_ASSOCIATIONS>
241  1

> <PUBCHEM_COMPOUND_ID_TYPE>
0

> <PUBCHEM_COORDINATE_TYPE>
1
3

> <PUBCHEM_EXT_DATASOURCE_NAME>
814

> <PUBCHEM_EXT_DATASOURCE_REGID>
49417673

> <PUBCHEM_EXT_DATASOURCE_URL>
http://chemmol.com/suppliers/ChemMol/494/1/

> <PUBCHEM_EXT_SUBSTANCE_URL>
http://www.chemmol.com/chemmol/49417673.html

> <PUBCHEM_GENERIC_REGISTRY_NAME>
8030-30-6

> <PUBCHEM_SUBSTANCE_ID>
126679024

> <PUBCHEM_SUBSTANCE_SYNONYM>
8030-30-6
PETROLEUM ETHER

> <PUBCHEM_SUBSTANCE_VERSION>
1

> <PUBCHEM_TOTAL_CHARGE>
0

> <PUBCHEM_XREF_EXT_ID>
49417673

$$$$
5053
  SciTegic10191915303D

 51 53  0  0  0  0            999 V2000
   -0.2750    0.8140    0.1720 O   0  0
    0.7990    1.3530    2.0630 O   0  0
   -0.0390   -0.7770   -3.7150 O   0  0
   -2.5250    0.2680    2.3360 C   0  0
   -1.8260    0.9490    3.5000 C   0  0  3  0  0  0
   -1.5840    1.4340    2.0860 C   0  0  3  0  0  0
   -4.0160    0.5180    2.1270 C   0  0
   -2.0640   -1.1410    1.9730 C   0  0
   -2.6130    1.8240    4.4590 C   0  0
   -0.2280    1.1970    1.4450 C   0  0
   -1.9670    2.6330    5.3150 C   0  0
   -2.7790    3.4690    6.2680 C   0  0
   -0.4610    2.6600    5.2790 C   0  0
    1.0100    0.5210   -0.3520 C   0  0
    0.8770    0.0640   -1.7890 C   0  0
    1.8630    0.0920   -2.7750 C   0  0
   -0.2600   -0.4710   -2.4040 C   0  0
    1.2640   -0.4300   -3.9280 C   0  0
    1.9280   -0.6090   -5.2750 C   0  0
    2.7170   -1.8690   -5.2750 C   0  0
    2.0590   -3.1110   -5.2750 C   0  0
    4.1210   -1.8180   -5.2750 C   0  0
    2.8050   -4.3030   -5.2750 C   0  0
    4.8670   -3.0100   -5.2750 C   0  0
    4.2110   -4.2520   -5.2750 C   0  0
   -1.0160    0.3930    3.9710 H   0  0
   -2.0470    2.3810    1.8110 H   0  0
   -4.2690    1.5700    2.2360 H   0  0
   -4.6050   -0.0450    2.8500 H   0  0
   -4.3220    0.2010    1.1290 H   0  0
   -1.0170   -1.3030    2.2270 H   0  0
   -2.1820   -1.3200    0.9040 H   0  0
   -2.6560   -1.8890    2.5020 H   0  0
   -3.6890    1.7500    4.4020 H   0  0
   -3.7480    3.0350    6.5080 H   0  0
   -2.9530    4.4550    5.8380 H   0  0
   -2.2320    3.6040    7.2010 H   0  0
   -0.0620    1.7580    5.7440 H   0  0
   -0.1170    2.7660    4.2500 H   0  0
   -0.0940    3.5180    5.8440 H   0  0
    1.4470   -0.2790    0.2440 H   0  0
    1.6110    1.4300   -0.3130 H   0  0
    2.8810    0.4410   -2.6720 H   0  0
   -1.2090   -0.6270   -1.9080 H   0  0
    2.5900    0.2340   -5.4690 H   0  0
    1.1640   -0.6580   -6.0530 H   0  0
    0.9790   -3.1580   -5.2750 H   0  0
    4.6330   -0.8670   -5.2750 H   0  0
    2.2990   -5.2560   -5.2750 H   0  0
    5.9470   -2.9710   -5.2750 H   0  0
    4.7830   -5.1660   -5.2750 H   0  0
  1 10  1  0
  1 14  1  0
  2 10  2  0
  3 17  1  0
  3 18  1  0
  4  5  1  0
  4  6  1  0
  4  7  1  0
  4  8  1  0
  5  6  1  0
  5  9  1  0
  5 26  1  0
  6 10  1  0
  6 27  1  0
  7 28  1  0
  7 29  1  0
  7 30  1  0
  8 31  1  0
  8 32  1  0
  8 33  1  0
  9 11  2  0
  9 34  1  0
 11 12  1  0
 11 13  1  0
 12 35  1  0
 12 36  1  0
 12 37  1  0
 13 38  1  0
 13 39  1  0
 13 40  1  0
 14 15  1  0
 14 41  1  0
 14 42  1  0
 15 16  1  0
 15 17  2  0
 16 18  2  0
 16 43  1  0
 17 44  1  0
 18 19  1  0
 19 20  1  0
 19 45  1  0
 19 46  1  0
 20 21  2  0
 20 22  1  0
 21 23  1  0
 21 47  1  0
 22 24  2  0
 22 48  1  0
 23 25  2  0
 23 49  1  0
 24 25  1  0
 24 50  1  0
 25 51  1  0
M  END
> <Name>
5053

> <OBJECTID>
9223372805657264139

> <PUBCHEM_ATOM_DEF_STEREO_COUNT>
0

> <PUBCHEM_ATOM_UDEF_STEREO_COUNT>
2

> <PUBCHEM_BONDANNOTATIONS>
15  16  8
15  17  8
16  18  8
20  21  8
20  22  8
21  23  8
22  24  8
23  25  8
24  25  8
3  17  8
3  18  8
5  9  3
6  10  3

> <PUBCHEM_BOND_DEF_STEREO_COUNT>
0

> <PUBCHEM_BOND_UDEF_STEREO_COUNT>
0

> <PUBCHEM_CACTVS_COMPLEXITY>
497

> <PUBCHEM_CACTVS_HBOND_ACCEPTOR>
3

> <PUBCHEM_CACTVS_HBOND_DONOR>
0

> <PUBCHEM_CACTVS_ROTATABLE_BOND>
7

> <PUBCHEM_CACTVS_SUBSKEYS>
AAADceB4MAAAAAAAAAAAAAAAGAAAASAAAAAwAAAAAAAAAAABwAAAGgAAAAAADwSgmAIyDIAABECIAqjSiAACCAAkIAAIiAEGCMgMJzaENRqCOSCl4BEIqYfKyOCPgAAAAAAAAAAAAAAAAAAAAAAAAAAAAA==

> <PUBCHEM_CACTVS_TAUTO_COUNT>
-1

> <PUBCHEM_CACTVS_TPSA>
39.4

> <PUBCHEM_COMPONENT_COUNT>
1

> <PUBCHEM_COMPOUND_CANONICALIZED>
1

> <PUBCHEM_COMPOUND_CID>
5053

> <PUBCHEM_COORDINATE_TYPE>
1
5
255

> <PUBCHEM_EXACT_MASS>
338.188195

> <PUBCHEM_HEAVY_ATOM_COUNT>
25

> <PUBCHEM_ISOTOPIC_ATOM_COUNT>
0

> <PUBCHEM_IUPAC_CAS_NAME>
2,2-dimethyl-3-(2-methylprop-1-enyl)-1-cyclopropanecarboxylic acid [5-(phenylmethyl)-3-furanyl]methyl ester

> <PUBCHEM_IUPAC_INCHI>
InChI=1S/C22H26O3/c1-15(2)10-19-20(22(19,3)4)21(23)25-14-17-12-18(24-13-17)11-16-8-6-5-7-9-16/h5-10,12-13,19-20H,11,14H2,1-4H3

> <PUBCHEM_IUPAC_INCHIKEY>
VEMKTZHHVJILDY-UHFFFAOYSA-N

> <PUBCHEM_IUPAC_NAME>
(5-benzylfuran-3-yl)methyl 2,2-dimethyl-3-(2-methylprop-1-enyl)cyclopropane-1-carboxylate

> <PUBCHEM_IUPAC_NAME_MARKUP>
(5-benzylfuran-3-yl)methyl 2,2-dimethyl-3-(2-methylprop-1-enyl)cyclopropane-1-carboxylate

> <PUBCHEM_IUPAC_OPENEYE_NAME>
(5-benzyl-3-furyl)methyl 2,2-dimethyl-3-(2-methylprop-1-enyl)cyclopropanecarboxylate

> <PUBCHEM_IUPAC_SYSTEMATIC_NAME>
[5-(phenylmethyl)furan-3-yl]methyl 2,2-dimethyl-3-(2-methylprop-1-enyl)cyclopropane-1-carboxylate

> <PUBCHEM_IUPAC_TRADITIONAL_NAME>
2,2-dimethyl-3-(2-methylprop-1-enyl)cyclopropanecarboxylic acid (5-benzyl-3-furyl)methyl ester

> <PUBCHEM_MOLECULAR_FORMULA>
C22H26O3

> <PUBCHEM_MOLECULAR_WEIGHT>
338.4

> <PUBCHEM_MONOISOTOPIC_WEIGHT>
338.188195

> <PUBCHEM_OPENEYE_CAN_SMILES>
CC(=CC1C(C1(C)C)C(=O)OCC2=COC(=C2)CC3=CC=CC=C3)C

> <PUBCHEM_OPENEYE_ISO_SMILES>
CC(=CC1C(C1(C)C)C(=O)OCC2=COC(=C2)CC3=CC=CC=C3)C

> <PUBCHEM_TOTAL_CHARGE>
0

> <PUBCHEM_XLOGP3>
6.1

$$$$
22833331
  SciTegic10191915303D

 26 25  0  0  0  0            999 V2000
   -0.2870   -0.5390   -0.8790 O   0  0
   -0.1310   -0.3220    3.8770 O   0  0
    1.3610   -0.1580   -2.4450 O   0  0
   -0.1950   -0.4120    1.4980 C   0  0
    0.2600    0.2130    0.1800 C   0  0
   -0.0080    0.0040   -2.1490 C   0  0  3  0  0  0
   -0.8160   -0.7700   -3.1900 C   0  0
    0.3440    0.3280    2.7210 C   0  0
   -0.7400   -0.1430   -4.5820 C   0  0
    0.3090    0.2790    5.0740 C   0  0
    0.0720   -1.4690    1.5370 H   0  0
   -1.2830   -0.4790    1.5370 H   0  0
   -0.1040    1.2380    0.0940 H   0  0
    1.3460    0.1800    0.0940 H   0  0
   -0.2230    1.0720   -2.1170 H   0  0
   -0.5060   -1.8150   -3.2210 H   0  0
   -1.8540   -0.8750   -2.8710 H   0  0
   -0.0160    1.3570    2.7380 H   0  0
    1.4340    0.2990    2.7380 H   0  0
   -1.3440   -0.7090   -5.2930 H   0  0
   -1.0920    0.8890   -4.5610 H   0  0
    0.2870   -0.1370   -4.9470 H   0  0
    1.8400    0.5510   -1.9860 H   0  0
   -0.0250   -0.1780    6.0060 H   0  0
   -0.0250    1.3160    5.0740 H   0  0
    1.3980    0.2790    5.0740 H   0  0
  1  5  1  0
  1  6  1  0
  2  8  1  0
  2 10  1  0
  3  6  1  0
  3 23  1  0
  4  5  1  0
  4  8  1  0
  4 11  1  0
  4 12  1  0
  5 13  1  0
  5 14  1  0
  6  7  1  0
  6 15  1  0
  7  9  1  0
  7 16  1  0
  7 17  1  0
  8 18  1  0
  8 19  1  0
  9 20  1  0
  9 21  1  0
  9 22  1  0
 10 24  1  0
 10 25  1  0
 10 26  1  0
M  END
> <Name>
22833331

> <OBJECTID>
9223372809952231435

> <PUBCHEM_ATOM_DEF_STEREO_COUNT>
0

> <PUBCHEM_ATOM_UDEF_STEREO_COUNT>
1

> <PUBCHEM_BONDANNOTATIONS>
6  3  3

> <PUBCHEM_BOND_DEF_STEREO_COUNT>
0

> <PUBCHEM_BOND_UDEF_STEREO_COUNT>
0

> <PUBCHEM_CACTVS_COMPLEXITY>
65.9

> <PUBCHEM_CACTVS_HBOND_ACCEPTOR>
3

> <PUBCHEM_CACTVS_HBOND_DONOR>
1

> <PUBCHEM_CACTVS_ROTATABLE_BOND>
6

> <PUBCHEM_CACTVS_SUBSKEYS>
AAADceBgMAAAAAAAAAAAAAAAAAAAAAAAAAAAAAAAAAAAAAAAAAAAGgAACAAACACwgAMCCAAABgAAAAAAAAAAAAAAAAAAAAAAAAAQEAAAAAACQAABAAAEAAAAAAAAAAAAAAAAAAAAAAAAAAAAAAAAAAAAAA==

> <PUBCHEM_CACTVS_TAUTO_COUNT>
-1

> <PUBCHEM_CACTVS_TPSA>
38.7

> <PUBCHEM_COMPONENT_COUNT>
1

> <PUBCHEM_COMPOUND_CANONICALIZED>
1

> <PUBCHEM_COMPOUND_CID>
22833331

> <PUBCHEM_COORDINATE_TYPE>
1
5
255

> <PUBCHEM_EXACT_MASS>
148.109944

> <PUBCHEM_HEAVY_ATOM_COUNT>
10

> <PUBCHEM_ISOTOPIC_ATOM_COUNT>
0

> <PUBCHEM_IUPAC_CAS_NAME>
1-(3-methoxypropoxy)-1-propanol

> <PUBCHEM_IUPAC_INCHI>
InChI=1S/C7H16O3/c1-3-7(8)10-6-4-5-9-2/h7-8H,3-6H2,1-2H3

> <PUBCHEM_IUPAC_INCHIKEY>
SHRGCOIDGUJGJI-UHFFFAOYSA-N

> <PUBCHEM_IUPAC_NAME>
1-(3-methoxypropoxy)propan-1-ol

> <PUBCHEM_IUPAC_NAME_MARKUP>
1-(3-methoxypropoxy)propan-1-ol

> <PUBCHEM_IUPAC_OPENEYE_NAME>
1-(3-methoxypropoxy)propan-1-ol

> <PUBCHEM_IUPAC_SYSTEMATIC_NAME>
1-(3-methoxypropoxy)propan-1-ol

> <PUBCHEM_IUPAC_TRADITIONAL_NAME>
1-(3-methoxypropoxy)propan-1-ol

> <PUBCHEM_MOLECULAR_FORMULA>
C7H16O3

> <PUBCHEM_MOLECULAR_WEIGHT>
148.2

> <PUBCHEM_MONOISOTOPIC_WEIGHT>
148.109944

> <PUBCHEM_OPENEYE_CAN_SMILES>
CCC(O)OCCCOC

> <PUBCHEM_OPENEYE_ISO_SMILES>
CCC(O)OCCCOC

> <PUBCHEM_TOTAL_CHARGE>
0

> <PUBCHEM_XLOGP3_AA>
0.7

$$$$
48419110
  SciTegic10191915303D

 35 34  0  0  0  0            999 V2000
    0.5810    3.7590    1.4470 C   0  0
    0.8810    2.2610    1.4860 C   0  0
    0.1300    1.4810    0.4060 C   0  0
    0.3170   -0.0310    0.5320 C   0  0
   -0.4300   -0.8110   -0.5510 C   0  0
   -0.2440   -2.3230   -0.4240 C   0  0
   -0.9910   -3.1020   -1.5070 C   0  0
    1.1220    4.5010    2.6710 C   0  0
    1.0000    4.4120    0.1300 C   0  0
   -0.8040   -4.6150   -1.3800 C   0  0
   -1.5510   -5.3940   -2.4630 C   0  0
   -0.5030    3.6640    1.5030 H   0  0
    1.9540    2.0800    1.4150 H   0  0
    0.6710    1.8510    2.4730 H   0  0
   -0.9280    1.7400    0.4090 H   0  0
    0.4200    1.8230   -0.5880 H   0  0
    1.3760   -0.2900    0.5320 H   0  0
    0.0240   -0.3740    1.5250 H   0  0
   -1.4890   -0.5520   -0.5510 H   0  0
   -0.1370   -0.4680   -1.5430 H   0  0
    0.8150   -2.5820   -0.4240 H   0  0
   -0.5370   -2.6650    0.5690 H   0  0
   -2.0490   -2.8430   -1.5070 H   0  0
   -0.6980   -2.7600   -2.4990 H   0  0
    0.7880    4.0440    3.6030 H   0  0
    0.7880    5.5380    2.6710 H   0  0
    2.2120    4.5010    2.6710 H   0  0
    0.4850    3.9710   -0.7240 H   0  0
    2.0720    4.2980   -0.0330 H   0  0
    0.7760    5.4780    0.1390 H   0  0
    0.2550   -4.8740   -1.3800 H   0  0
   -1.0970   -4.9570   -0.3880 H   0  0
   -1.3880   -6.4650   -2.3480 H   0  0
   -2.6200   -5.1890   -2.4170 H   0  0
   -1.2000   -5.1080   -3.4550 H   0  0
  1  2  1  0
  1  8  1  0
  1  9  1  0
  2  3  1  0
  3  4  1  0
  4  5  1  0
  5  6  1  0
  6  7  1  0
  7 10  1  0
 10 11  1  0
  1 12  1  0
  2 13  1  0
  2 14  1  0
  3 15  1  0
  3 16  1  0
  4 17  1  0
  4 18  1  0
  5 19  1  0
  5 20  1  0
  6 21  1  0
  6 22  1  0
  7 23  1  0
  7 24  1  0
  8 25  1  0
  8 26  1  0
  8 27  1  0
  9 28  1  0
  9 29  1  0
  9 30  1  0
 10 31  1  0
 10 32  1  0
 11 33  1  0
 11 34  1  0
 11 35  1  0
M  END
> <Name>
48419110

> <OBJECTID>
9223372814247198731

> <PUBCHEM_CID_ASSOCIATIONS>
23415  1

> <PUBCHEM_COMPOUND_ID_TYPE>
0

> <PUBCHEM_COORDINATE_TYPE>
1
3

> <PUBCHEM_EXT_DATASOURCE_NAME>
EPA DSSTox

> <PUBCHEM_EXT_DATASOURCE_REGID>
28714

> <PUBCHEM_EXT_DATASOURCE_URL>
http://www.epa.gov/ncct/dsstox/sdf_hpvcsi.html

> <PUBCHEM_GENERIC_REGISTRY_NAME>
68551-17-7

> <PUBCHEM_SUBSTANCE_COMMENT>
Substance included in EPA DSSTox HPVCSI: EPA High Production Volume (HPV) Challenge Program Structure-Index File [link to DSSTox SDF Download Page] http://www.epa.gov/ncct/dsstox/sdf_hpvcsi.html
Structure Shown: representative component in mixture
Chemical Note: mixture of isoalkanes; structure shown 2-methyldecane
For further information visit the EPA HPV Challenge Website http://www.epa.gov/chemrtk/

> <PUBCHEM_SUBSTANCE_ID>
48419110

> <PUBCHEM_SUBSTANCE_SYNONYM>
68551-17-7
Alkanes, C10-13-iso-

> <PUBCHEM_SUBSTANCE_VERSION>
2

> <PUBCHEM_TOTAL_CHARGE>
0

> <PUBCHEM_XREF_EXT_ID>
28714

$$$$
135418283
  DSViewer          3D                             0

 28 28  0  0  0  0  0  0  0  0999 V2000
   -2.0230   -2.7600   -1.4370 O   0  0
    2.3400    2.1640    3.1560 O   0  5
    0.8830    3.7380    2.8090 O   0  0
    0.6950    0.4690   -0.0940 N   0  0
    2.7360    1.3930    0.7740 N   0  0
    0.7130    1.8610    1.7050 N   0  0
    1.3460    2.6390    2.6090 N   0  3
   -1.3140   -0.6210   -1.0210 C   0  0  3  0  0  0
   -2.8540   -0.6430   -1.0390 C   0  0
   -0.9410   -2.0920   -0.8400 C   0  0
   -0.7440    0.2460    0.0960 C   0  0
   -3.2210   -2.1270   -1.0620 C   0  0
    1.3770    1.2440    0.8010 C   0  0
    3.5350    0.5490   -0.1250 C   0  0
   -0.9470   -0.2700   -1.9770 H   0  0
   -3.2270   -0.1390   -1.9220 H   0  0
   -3.2870   -0.1560   -0.1780 H   0  0
   -0.9020   -2.3730    0.2030 H   0  0
   -0.0120   -2.3670   -1.3180 H   0  0
   -1.2540    1.2110    0.1330 H   0  0
   -0.9120   -0.2170    1.0660 H   0  0
   -3.4920   -2.4730   -0.0740 H   0  0
   -4.0140   -2.3730   -1.7540 H   0  0
    1.1800    0.0590   -0.8670 H   0  0
    3.1800    2.0680    1.3610 H   0  0
    3.2680    0.7710   -1.1580 H   0  0
    4.5940    0.6950    0.0920 H   0  0
    3.2990   -0.4980    0.0610 H   0  0
  1 10  1  0  0  0
  1 12  1  0  0  0
  2  7  1  0  0  0
  3  7  2  0  0  0
  4 11  1  0  0  0
  4 13  1  0  0  0
  4 24  1  0  0  0
  5 13  1  0  0  0
  5 14  1  0  0  0
  5 25  1  0  0  0
  6  7  1  0  0  0
  6 13  2  0  0  0
  8  9  1  0  0  0
  8 10  1  0  0  0
  8 11  1  0  0  0
  8 15  1  0  0  0
  9 12  1  0  0  0
  9 16  1  0  0  0
  9 17  1  0  0  0
 10 18  1  0  0  0
 10 19  1  0  0  0
 11 20  1  0  0  0
 11 21  1  0  0  0
 12 22  1  0  0  0
 12 23  1  0  0  0
 14 26  1  0  0  0
 14 27  1  0  0  0
 14 28  1  0  0  0
M  CHG  2   2  -1   7   1
M  END
> <OBJECTID>
9223372041153085451

> <PUBCHEM_ATOM_DEF_STEREO_COUNT>
0

> <PUBCHEM_ATOM_UDEF_STEREO_COUNT>
1

> <PUBCHEM_BONDANNOTATIONS>
8  11  3

> <PUBCHEM_BOND_DEF_STEREO_COUNT>
1

> <PUBCHEM_BOND_UDEF_STEREO_COUNT>
0

> <PUBCHEM_CACTVS_COMPLEXITY>
226

> <PUBCHEM_CACTVS_HBOND_ACCEPTOR>
4

> <PUBCHEM_CACTVS_HBOND_DONOR>
2

> <PUBCHEM_CACTVS_ROTATABLE_BOND>
4

> <PUBCHEM_CACTVS_SUBSKEYS>
AAADccBjsAAAAAAAAAAAAAAAAAAAASAAAAAAAAAAAAAAAAAAAAAAHgAcAAAADQDhgAYDAALARAAhAAAAIQAAAAAAAAABAIAIAACAAAAAiAAGAAAOEAIAAAAgAAAIAAAAAAAAAAAAAAAAAAAAAAAAAAAAAA==

> <PUBCHEM_CACTVS_TAUTO_COUNT>
-1

> <PUBCHEM_CACTVS_TPSA>
91.5

> <PUBCHEM_COMPONENT_COUNT>
1

> <PUBCHEM_COMPOUND_CANONICALIZED>
1

> <PUBCHEM_COMPOUND_CID>
135418283

> <PUBCHEM_COORDINATE_TYPE>
1
5
255

> <PUBCHEM_EXACT_MASS>
202.107

> <PUBCHEM_HEAVY_ATOM_COUNT>
14

> <PUBCHEM_ISOTOPIC_ATOM_COUNT>
0

> <PUBCHEM_IUPAC_CAS_NAME>
1-methyl-2-nitro-3-(3-oxolanylmethyl)guanidine

> <PUBCHEM_IUPAC_INCHI>
InChI=1S/C7H14N4O3/c1-8-7(10-11(12)13)9-4-6-2-3-14-5-6/h6H,2-5H2,1H3,(H2,8,9,10)

> <PUBCHEM_IUPAC_INCHIKEY>
YKBZOVFACRVRJN-UHFFFAOYSA-N

> <PUBCHEM_IUPAC_NAME>
1-methyl-2-nitro-3-(oxolan-3-ylmethyl)guanidine

> <PUBCHEM_IUPAC_NAME_MARKUP>
1-methyl-2-nitro-3-(oxolan-3-ylmethyl)guanidine

> <PUBCHEM_IUPAC_OPENEYE_NAME>
1-methyl-2-nitro-3-(tetrahydrofuran-3-ylmethyl)guanidine

> <PUBCHEM_IUPAC_SYSTEMATIC_NAME>
1-methyl-2-nitro-3-(oxolan-3-ylmethyl)guanidine

> <PUBCHEM_IUPAC_TRADITIONAL_NAME>
1-methyl-2-nitro-3-(tetrahydrofuran-3-ylmethyl)guanidine

> <PUBCHEM_MOLECULAR_FORMULA>
C7H14N4O3

> <PUBCHEM_MOLECULAR_WEIGHT>
202.21

> <PUBCHEM_MONOISOTOPIC_WEIGHT>
202.107

> <PUBCHEM_OPENEYE_CAN_SMILES>
CNC(=N[N+](=O)[O-])NCC1CCOC1

> <PUBCHEM_OPENEYE_ISO_SMILES>
CN/C(=N\[N+](=O)[O-])/NCC1CCOC1

> <PUBCHEM_TOTAL_CHARGE>
0

> <PUBCHEM_XLOGP3_AA>
0.1

$$$$
5YCP
  DSViewer          3D                             0

 44 46  0  0  0  0  0  0  0  0999 V2000
   19.4190  -19.7460    0.6830 S   0  0
   17.9360  -18.5230    2.4130 O   0  0
   18.2160  -17.3130   -1.8700 O   0  0
   22.3400  -24.5000   -2.8510 O   0  0
   17.9300  -17.7640    0.3070 N   0  0
   24.7980  -25.6410   -1.9210 N   0  0
   26.5550  -24.1560   -2.2340 N   0  0
   18.3570  -18.5790    1.2640 C   0  0
   18.4790  -18.0370   -0.9090 C   0  0
   19.3310  -19.2000   -1.0250 C   0  0  2  0  0  0
   18.6890  -20.2890   -1.9060 C   0  0
   19.6420  -21.3280   -2.1790 C   0  0
   20.7160  -21.1500   -3.0800 C   0  0
   21.6290  -22.1690   -3.3350 C   0  0
   21.5030  -23.4040   -2.6820 C   0  0
   20.4390  -23.5730   -1.8030 C   0  0
   19.5250  -22.5600   -1.5550 C   0  0
   23.5940  -24.2160   -3.4380 C   0  0
   24.4250  -25.4710   -3.3540 C   0  0
   23.9530  -26.5030   -1.0440 C   0  0
   25.8390  -24.9730   -1.3960 C   0  0
   27.6610  -23.4200   -1.8190 C   0  0
   28.0530  -23.5040   -0.4940 C   0  0
   27.3490  -24.3480    0.3710 C   0  0
   26.2470  -25.0900   -0.0480 C   0  0
   17.2273  -16.9745    0.4738 H   0  0
   20.3175  -18.9260   -1.3990 H   0  0
   17.8312  -20.7145   -1.3853 H   0  0
   18.3606  -19.8451   -2.8458 H   0  0
   20.8321  -20.1922   -3.5871 H   0  0
   22.4423  -22.0073   -4.0424 H   0  0
   20.3199  -24.5295   -1.2941 H   0  0
   18.7037  -22.7350   -0.8601 H   0  0
   23.4604  -23.9267   -4.4804 H   0  0
   24.0845  -23.4075   -2.8960 H   0  0
   25.3212  -25.3699   -3.9661 H   0  0
   23.8458  -26.3288   -3.6958 H   0  0
   24.3682  -26.5146   -0.0363 H   0  0
   23.9347  -27.5182   -1.4405 H   0  0
   22.9380  -26.1069   -1.0136 H   0  0
   28.2068  -22.7910   -2.5222 H   0  0
   28.8986  -22.9205   -0.1299 H   0  0
   27.6737  -24.4279    1.4084 H   0  0
   25.7145  -25.7423    0.6442 H   0  0
  1  8  1  0  0  0
  1 10  1  0  0  0
  2  8  2  0  0  0
  3  9  2  0  0  0
  4 15  1  0  0  0
  4 18  1  0  0  0
  5  8  1  0  0  0
  5  9  1  0  0  0
  6 19  1  0  0  0
  6 20  1  0  0  0
  6 21  1  0  0  0
  7 21  4  0  0  0
  7 22  4  0  0  0
  9 10  1  0  0  0
 10 11  1  0  0  0
 11 12  1  0  0  0
 12 13  4  0  0  0
 12 17  4  0  0  0
 13 14  4  0  0  0
 14 15  4  0  0  0
 15 16  4  0  0  0
 16 17  4  0  0  0
 18 19  1  0  0  0
 21 25  4  0  0  0
 22 23  4  0  0  0
 23 24  4  0  0  0
 24 25  4  0  0  0
  5 26  1  0  0  0
 10 27  1  0  0  0
 11 28  1  0  0  0
 11 29  1  0  0  0
 13 30  1  0  0  0
 14 31  1  0  0  0
 16 32  1  0  0  0
 17 33  1  0  0  0
 18 34  1  0  0  0
 18 35  1  0  0  0
 19 36  1  0  0  0
 19 37  1  0  0  0
 20 38  1  0  0  0
 20 39  1  0  0  0
 20 40  1  0  0  0
 22 41  1  0  0  0
 23 42  1  0  0  0
 24 43  1  0  0  0
 25 44  1  0  0  0
M  END
> <OBJECTID>
9223373600226213899

> <Resolution>
2

> <RMSD_CA_6AVI>
0.832646

> <RMSD_CA_5LSG>
2.16752

$$$$
